
---------- Begin Simulation Statistics ----------
simSeconds                                   0.002645                       # Number of seconds simulated (Second)
simTicks                                   2645369500                       # Number of ticks simulated (Tick)
finalTick                                  2645369500                       # Number of ticks from beginning of simulation (restored from checkpoints and never reset) (Tick)
simFreq                                  1000000000000                       # The number of ticks per simulated second ((Tick/Second))
hostSeconds                                     24.19                       # Real time elapsed on the host (Second)
hostTickRate                                109346492                       # The number of ticks simulated per host second (ticks/s) ((Tick/Second))
hostMemory                                     924276                       # Number of bytes of host memory used (Byte)
simInsts                                      6436803                       # Number of instructions simulated (Count)
simOps                                       10693060                       # Number of ops (including micro ops) simulated (Count)
hostInstRate                                   266065                       # Simulator instruction rate (inst/s) ((Count/Second))
hostOpRate                                     441997                       # Simulator op (including micro ops) rate (op/s) ((Count/Second))
system.clk_domain.clock                           500                       # Clock period in ticks (Tick)
system.clk_domain.voltage_domain.voltage            1                       # Voltage in Volts (Volt)
system.cpu.numCycles                          5290740                       # Number of cpu cycles simulated (Cycle)
system.cpu.numWorkItemsStarted                      0                       # Number of work items this cpu started (Count)
system.cpu.numWorkItemsCompleted                    0                       # Number of work items this cpu completed (Count)
system.cpu.instsAdded                        10798729                       # Number of instructions added to the IQ (excludes non-spec) (Count)
system.cpu.nonSpecInstsAdded                      119                       # Number of non-speculative instructions added to the IQ (Count)
system.cpu.instsIssued                       10774163                       # Number of instructions issued (Count)
system.cpu.squashedInstsIssued                     36                       # Number of squashed instructions issued (Count)
system.cpu.squashedInstsExamined               105749                       # Number of squashed instructions iterated over during squash; mainly for profiling (Count)
system.cpu.squashedOperandsExamined            146823                       # Number of squashed operands that are examined and possibly removed from graph (Count)
system.cpu.squashedNonSpecRemoved                  95                       # Number of squashed non-spec instructions that were removed (Count)
system.cpu.numIssuedDist::samples             5079910                       # Number of insts issued each cycle (Count)
system.cpu.numIssuedDist::mean               2.120936                       # Number of insts issued each cycle (Count)
system.cpu.numIssuedDist::stdev              1.809615                       # Number of insts issued each cycle (Count)
system.cpu.numIssuedDist::underflows                0      0.00%      0.00% # Number of insts issued each cycle (Count)
system.cpu.numIssuedDist::0                   1166986     22.97%     22.97% # Number of insts issued each cycle (Count)
system.cpu.numIssuedDist::1                   1005520     19.79%     42.77% # Number of insts issued each cycle (Count)
system.cpu.numIssuedDist::2                   1118738     22.02%     64.79% # Number of insts issued each cycle (Count)
system.cpu.numIssuedDist::3                    610332     12.01%     76.80% # Number of insts issued each cycle (Count)
system.cpu.numIssuedDist::4                    529711     10.43%     87.23% # Number of insts issued each cycle (Count)
system.cpu.numIssuedDist::5                    354809      6.98%     94.22% # Number of insts issued each cycle (Count)
system.cpu.numIssuedDist::6                    255902      5.04%     99.25% # Number of insts issued each cycle (Count)
system.cpu.numIssuedDist::7                     31426      0.62%     99.87% # Number of insts issued each cycle (Count)
system.cpu.numIssuedDist::8                      6486      0.13%    100.00% # Number of insts issued each cycle (Count)
system.cpu.numIssuedDist::overflows                 0      0.00%    100.00% # Number of insts issued each cycle (Count)
system.cpu.numIssuedDist::min_value                 0                       # Number of insts issued each cycle (Count)
system.cpu.numIssuedDist::max_value                 8                       # Number of insts issued each cycle (Count)
system.cpu.numIssuedDist::total               5079910                       # Number of insts issued each cycle (Count)
system.cpu.statFuBusy::No_OpClass                   0      0.00%      0.00% # attempts to use FU when none available (Count)
system.cpu.statFuBusy::IntAlu                       0      0.00%      0.00% # attempts to use FU when none available (Count)
system.cpu.statFuBusy::IntMult                      0      0.00%      0.00% # attempts to use FU when none available (Count)
system.cpu.statFuBusy::IntDiv                       0      0.00%      0.00% # attempts to use FU when none available (Count)
system.cpu.statFuBusy::FloatAdd                     0      0.00%      0.00% # attempts to use FU when none available (Count)
system.cpu.statFuBusy::FloatCmp                     0      0.00%      0.00% # attempts to use FU when none available (Count)
system.cpu.statFuBusy::FloatCvt                     0      0.00%      0.00% # attempts to use FU when none available (Count)
system.cpu.statFuBusy::FloatMult                    0      0.00%      0.00% # attempts to use FU when none available (Count)
system.cpu.statFuBusy::FloatMultAcc                 0      0.00%      0.00% # attempts to use FU when none available (Count)
system.cpu.statFuBusy::FloatDiv                     0      0.00%      0.00% # attempts to use FU when none available (Count)
system.cpu.statFuBusy::FloatMisc                    0      0.00%      0.00% # attempts to use FU when none available (Count)
system.cpu.statFuBusy::FloatSqrt                    0      0.00%      0.00% # attempts to use FU when none available (Count)
system.cpu.statFuBusy::SimdAdd                      0      0.00%      0.00% # attempts to use FU when none available (Count)
system.cpu.statFuBusy::SimdAddAcc                   0      0.00%      0.00% # attempts to use FU when none available (Count)
system.cpu.statFuBusy::SimdAlu                     23      0.15%      0.15% # attempts to use FU when none available (Count)
system.cpu.statFuBusy::SimdCmp                      0      0.00%      0.15% # attempts to use FU when none available (Count)
system.cpu.statFuBusy::SimdCvt                      0      0.00%      0.15% # attempts to use FU when none available (Count)
system.cpu.statFuBusy::SimdMisc                     2      0.01%      0.16% # attempts to use FU when none available (Count)
system.cpu.statFuBusy::SimdMult                     0      0.00%      0.16% # attempts to use FU when none available (Count)
system.cpu.statFuBusy::SimdMultAcc                  0      0.00%      0.16% # attempts to use FU when none available (Count)
system.cpu.statFuBusy::SimdShift                    0      0.00%      0.16% # attempts to use FU when none available (Count)
system.cpu.statFuBusy::SimdShiftAcc                 0      0.00%      0.16% # attempts to use FU when none available (Count)
system.cpu.statFuBusy::SimdDiv                      0      0.00%      0.16% # attempts to use FU when none available (Count)
system.cpu.statFuBusy::SimdSqrt                     0      0.00%      0.16% # attempts to use FU when none available (Count)
system.cpu.statFuBusy::SimdFloatAdd                 0      0.00%      0.16% # attempts to use FU when none available (Count)
system.cpu.statFuBusy::SimdFloatAlu                 0      0.00%      0.16% # attempts to use FU when none available (Count)
system.cpu.statFuBusy::SimdFloatCmp                 0      0.00%      0.16% # attempts to use FU when none available (Count)
system.cpu.statFuBusy::SimdFloatCvt                 0      0.00%      0.16% # attempts to use FU when none available (Count)
system.cpu.statFuBusy::SimdFloatDiv                 0      0.00%      0.16% # attempts to use FU when none available (Count)
system.cpu.statFuBusy::SimdFloatMisc                0      0.00%      0.16% # attempts to use FU when none available (Count)
system.cpu.statFuBusy::SimdFloatMult                0      0.00%      0.16% # attempts to use FU when none available (Count)
system.cpu.statFuBusy::SimdFloatMultAcc             0      0.00%      0.16% # attempts to use FU when none available (Count)
system.cpu.statFuBusy::SimdFloatSqrt                0      0.00%      0.16% # attempts to use FU when none available (Count)
system.cpu.statFuBusy::SimdReduceAdd                0      0.00%      0.16% # attempts to use FU when none available (Count)
system.cpu.statFuBusy::SimdReduceAlu                0      0.00%      0.16% # attempts to use FU when none available (Count)
system.cpu.statFuBusy::SimdReduceCmp                0      0.00%      0.16% # attempts to use FU when none available (Count)
system.cpu.statFuBusy::SimdFloatReduceAdd            0      0.00%      0.16% # attempts to use FU when none available (Count)
system.cpu.statFuBusy::SimdFloatReduceCmp            0      0.00%      0.16% # attempts to use FU when none available (Count)
system.cpu.statFuBusy::SimdAes                      0      0.00%      0.16% # attempts to use FU when none available (Count)
system.cpu.statFuBusy::SimdAesMix                   0      0.00%      0.16% # attempts to use FU when none available (Count)
system.cpu.statFuBusy::SimdSha1Hash                 0      0.00%      0.16% # attempts to use FU when none available (Count)
system.cpu.statFuBusy::SimdSha1Hash2                0      0.00%      0.16% # attempts to use FU when none available (Count)
system.cpu.statFuBusy::SimdSha256Hash               0      0.00%      0.16% # attempts to use FU when none available (Count)
system.cpu.statFuBusy::SimdSha256Hash2              0      0.00%      0.16% # attempts to use FU when none available (Count)
system.cpu.statFuBusy::SimdShaSigma2                0      0.00%      0.16% # attempts to use FU when none available (Count)
system.cpu.statFuBusy::SimdShaSigma3                0      0.00%      0.16% # attempts to use FU when none available (Count)
system.cpu.statFuBusy::SimdPredAlu                  0      0.00%      0.16% # attempts to use FU when none available (Count)
system.cpu.statFuBusy::MemRead                  15483     97.93%     98.08% # attempts to use FU when none available (Count)
system.cpu.statFuBusy::MemWrite                   216      1.37%     99.45% # attempts to use FU when none available (Count)
system.cpu.statFuBusy::FloatMemRead                27      0.17%     99.62% # attempts to use FU when none available (Count)
system.cpu.statFuBusy::FloatMemWrite               60      0.38%    100.00% # attempts to use FU when none available (Count)
system.cpu.statFuBusy::IprAccess                    0      0.00%    100.00% # attempts to use FU when none available (Count)
system.cpu.statFuBusy::InstPrefetch                 0      0.00%    100.00% # attempts to use FU when none available (Count)
system.cpu.statIssuedInstType_0::No_OpClass         2316      0.02%      0.02% # Number of instructions issued per FU type, per thread (Count)
system.cpu.statIssuedInstType_0::IntAlu       7393686     68.62%     68.65% # Number of instructions issued per FU type, per thread (Count)
system.cpu.statIssuedInstType_0::IntMult       300305      2.79%     71.43% # Number of instructions issued per FU type, per thread (Count)
system.cpu.statIssuedInstType_0::IntDiv          1724      0.02%     71.45% # Number of instructions issued per FU type, per thread (Count)
system.cpu.statIssuedInstType_0::FloatAdd          210      0.00%     71.45% # Number of instructions issued per FU type, per thread (Count)
system.cpu.statIssuedInstType_0::FloatCmp            0      0.00%     71.45% # Number of instructions issued per FU type, per thread (Count)
system.cpu.statIssuedInstType_0::FloatCvt           32      0.00%     71.45% # Number of instructions issued per FU type, per thread (Count)
system.cpu.statIssuedInstType_0::FloatMult            0      0.00%     71.45% # Number of instructions issued per FU type, per thread (Count)
system.cpu.statIssuedInstType_0::FloatMultAcc            0      0.00%     71.45% # Number of instructions issued per FU type, per thread (Count)
system.cpu.statIssuedInstType_0::FloatDiv            0      0.00%     71.45% # Number of instructions issued per FU type, per thread (Count)
system.cpu.statIssuedInstType_0::FloatMisc            0      0.00%     71.45% # Number of instructions issued per FU type, per thread (Count)
system.cpu.statIssuedInstType_0::FloatSqrt            0      0.00%     71.45% # Number of instructions issued per FU type, per thread (Count)
system.cpu.statIssuedInstType_0::SimdAdd          406      0.00%     71.46% # Number of instructions issued per FU type, per thread (Count)
system.cpu.statIssuedInstType_0::SimdAddAcc            0      0.00%     71.46% # Number of instructions issued per FU type, per thread (Count)
system.cpu.statIssuedInstType_0::SimdAlu          919      0.01%     71.46% # Number of instructions issued per FU type, per thread (Count)
system.cpu.statIssuedInstType_0::SimdCmp            0      0.00%     71.46% # Number of instructions issued per FU type, per thread (Count)
system.cpu.statIssuedInstType_0::SimdCvt         1138      0.01%     71.47% # Number of instructions issued per FU type, per thread (Count)
system.cpu.statIssuedInstType_0::SimdMisc          918      0.01%     71.48% # Number of instructions issued per FU type, per thread (Count)
system.cpu.statIssuedInstType_0::SimdMult            0      0.00%     71.48% # Number of instructions issued per FU type, per thread (Count)
system.cpu.statIssuedInstType_0::SimdMultAcc            0      0.00%     71.48% # Number of instructions issued per FU type, per thread (Count)
system.cpu.statIssuedInstType_0::SimdShift          348      0.00%     71.49% # Number of instructions issued per FU type, per thread (Count)
system.cpu.statIssuedInstType_0::SimdShiftAcc            0      0.00%     71.49% # Number of instructions issued per FU type, per thread (Count)
system.cpu.statIssuedInstType_0::SimdDiv            0      0.00%     71.49% # Number of instructions issued per FU type, per thread (Count)
system.cpu.statIssuedInstType_0::SimdSqrt            0      0.00%     71.49% # Number of instructions issued per FU type, per thread (Count)
system.cpu.statIssuedInstType_0::SimdFloatAdd            0      0.00%     71.49% # Number of instructions issued per FU type, per thread (Count)
system.cpu.statIssuedInstType_0::SimdFloatAlu            0      0.00%     71.49% # Number of instructions issued per FU type, per thread (Count)
system.cpu.statIssuedInstType_0::SimdFloatCmp            0      0.00%     71.49% # Number of instructions issued per FU type, per thread (Count)
system.cpu.statIssuedInstType_0::SimdFloatCvt            0      0.00%     71.49% # Number of instructions issued per FU type, per thread (Count)
system.cpu.statIssuedInstType_0::SimdFloatDiv            0      0.00%     71.49% # Number of instructions issued per FU type, per thread (Count)
system.cpu.statIssuedInstType_0::SimdFloatMisc            0      0.00%     71.49% # Number of instructions issued per FU type, per thread (Count)
system.cpu.statIssuedInstType_0::SimdFloatMult            0      0.00%     71.49% # Number of instructions issued per FU type, per thread (Count)
system.cpu.statIssuedInstType_0::SimdFloatMultAcc            0      0.00%     71.49% # Number of instructions issued per FU type, per thread (Count)
system.cpu.statIssuedInstType_0::SimdFloatSqrt            0      0.00%     71.49% # Number of instructions issued per FU type, per thread (Count)
system.cpu.statIssuedInstType_0::SimdReduceAdd            0      0.00%     71.49% # Number of instructions issued per FU type, per thread (Count)
system.cpu.statIssuedInstType_0::SimdReduceAlu            0      0.00%     71.49% # Number of instructions issued per FU type, per thread (Count)
system.cpu.statIssuedInstType_0::SimdReduceCmp            0      0.00%     71.49% # Number of instructions issued per FU type, per thread (Count)
system.cpu.statIssuedInstType_0::SimdFloatReduceAdd            0      0.00%     71.49% # Number of instructions issued per FU type, per thread (Count)
system.cpu.statIssuedInstType_0::SimdFloatReduceCmp            0      0.00%     71.49% # Number of instructions issued per FU type, per thread (Count)
system.cpu.statIssuedInstType_0::SimdAes            0      0.00%     71.49% # Number of instructions issued per FU type, per thread (Count)
system.cpu.statIssuedInstType_0::SimdAesMix            0      0.00%     71.49% # Number of instructions issued per FU type, per thread (Count)
system.cpu.statIssuedInstType_0::SimdSha1Hash            0      0.00%     71.49% # Number of instructions issued per FU type, per thread (Count)
system.cpu.statIssuedInstType_0::SimdSha1Hash2            0      0.00%     71.49% # Number of instructions issued per FU type, per thread (Count)
system.cpu.statIssuedInstType_0::SimdSha256Hash            0      0.00%     71.49% # Number of instructions issued per FU type, per thread (Count)
system.cpu.statIssuedInstType_0::SimdSha256Hash2            0      0.00%     71.49% # Number of instructions issued per FU type, per thread (Count)
system.cpu.statIssuedInstType_0::SimdShaSigma2            0      0.00%     71.49% # Number of instructions issued per FU type, per thread (Count)
system.cpu.statIssuedInstType_0::SimdShaSigma3            0      0.00%     71.49% # Number of instructions issued per FU type, per thread (Count)
system.cpu.statIssuedInstType_0::SimdPredAlu            0      0.00%     71.49% # Number of instructions issued per FU type, per thread (Count)
system.cpu.statIssuedInstType_0::MemRead      2253089     20.91%     92.40% # Number of instructions issued per FU type, per thread (Count)
system.cpu.statIssuedInstType_0::MemWrite       817025      7.58%     99.98% # Number of instructions issued per FU type, per thread (Count)
system.cpu.statIssuedInstType_0::FloatMemRead         1404      0.01%     99.99% # Number of instructions issued per FU type, per thread (Count)
system.cpu.statIssuedInstType_0::FloatMemWrite          643      0.01%    100.00% # Number of instructions issued per FU type, per thread (Count)
system.cpu.statIssuedInstType_0::IprAccess            0      0.00%    100.00% # Number of instructions issued per FU type, per thread (Count)
system.cpu.statIssuedInstType_0::InstPrefetch            0      0.00%    100.00% # Number of instructions issued per FU type, per thread (Count)
system.cpu.statIssuedInstType_0::total       10774163                       # Number of instructions issued per FU type, per thread (Count)
system.cpu.issueRate                         2.036419                       # Inst issue rate ((Count/Cycle))
system.cpu.fuBusy                               15811                       # FU busy when requested (Count)
system.cpu.fuBusyRate                        0.001467                       # FU busy rate (busy events/executed inst) ((Count/Count))
system.cpu.intInstQueueReads                 26631579                       # Number of integer instruction queue reads (Count)
system.cpu.intInstQueueWrites                10896107                       # Number of integer instruction queue writes (Count)
system.cpu.intInstQueueWakeupAccesses        10758877                       # Number of integer instruction queue wakeup accesses (Count)
system.cpu.fpInstQueueReads                     12502                       # Number of floating instruction queue reads (Count)
system.cpu.fpInstQueueWrites                     8609                       # Number of floating instruction queue writes (Count)
system.cpu.fpInstQueueWakeupAccesses             5888                       # Number of floating instruction queue wakeup accesses (Count)
system.cpu.vecInstQueueReads                        0                       # Number of vector instruction queue reads (Count)
system.cpu.vecInstQueueWrites                       0                       # Number of vector instruction queue writes (Count)
system.cpu.vecInstQueueWakeupAccesses               0                       # Number of vector instruction queue wakeup accesses (Count)
system.cpu.intAluAccesses                    10781364                       # Number of integer alu accesses (Count)
system.cpu.fpAluAccesses                         6294                       # Number of floating point alu accesses (Count)
system.cpu.vecAluAccesses                           0                       # Number of vector alu accesses (Count)
system.cpu.numInsts                          10767528                       # Number of executed instructions (Count)
system.cpu.numLoadInsts                       2252636                       # Number of load instructions executed (Count)
system.cpu.numSquashedInsts                      6633                       # Number of squashed instructions skipped in execute (Count)
system.cpu.numSwp                                   0                       # Number of swp insts executed (Count)
system.cpu.numNop                                   0                       # Number of nop insts executed (Count)
system.cpu.numRefs                            3070048                       # Number of memory reference insts executed (Count)
system.cpu.numBranches                         648094                       # Number of branches executed (Count)
system.cpu.numStoreInsts                       817412                       # Number of stores executed (Count)
system.cpu.numRate                           2.035165                       # Inst execution rate ((Count/Cycle))
system.cpu.timesIdled                            2449                       # Number of times that the entire CPU went into an idle state and unscheduled itself (Count)
system.cpu.idleCycles                          210830                       # Total number of cycles that the CPU has spent unscheduled due to idling (Cycle)
system.cpu.committedInsts                     6436803                       # Number of Instructions Simulated (Count)
system.cpu.committedOps                      10693060                       # Number of Ops (including micro ops) Simulated (Count)
system.cpu.cpi                               0.821952                       # CPI: Cycles Per Instruction ((Cycle/Count))
system.cpu.totalCpi                          0.821952                       # CPI: Total CPI of All Threads ((Cycle/Count))
system.cpu.ipc                               1.216617                       # IPC: Instructions Per Cycle ((Count/Cycle))
system.cpu.totalIpc                          1.216617                       # IPC: Total IPC of All Threads ((Count/Cycle))
system.cpu.intRegfileReads                   13630794                       # Number of integer regfile reads (Count)
system.cpu.intRegfileWrites                   8958063                       # Number of integer regfile writes (Count)
system.cpu.fpRegfileReads                        9232                       # Number of floating regfile reads (Count)
system.cpu.fpRegfileWrites                       4680                       # Number of floating regfile writes (Count)
system.cpu.ccRegfileReads                     2447140                       # number of cc regfile reads (Count)
system.cpu.ccRegfileWrites                    3062749                       # number of cc regfile writes (Count)
system.cpu.miscRegfileReads                   4820800                       # number of misc regfile reads (Count)
system.cpu.miscRegfileWrites                       18                       # number of misc regfile writes (Count)
system.cpu.MemDepUnit__0.insertedLoads        2256644                       # Number of loads inserted to the mem dependence unit. (Count)
system.cpu.MemDepUnit__0.insertedStores        818711                       # Number of stores inserted to the mem dependence unit. (Count)
system.cpu.MemDepUnit__0.conflictingLoads       972190                       # Number of conflicting loads. (Count)
system.cpu.MemDepUnit__0.conflictingStores          184                       # Number of conflicting stores. (Count)
system.cpu.MemDepUnit__1.insertedLoads              0                       # Number of loads inserted to the mem dependence unit. (Count)
system.cpu.MemDepUnit__1.insertedStores             0                       # Number of stores inserted to the mem dependence unit. (Count)
system.cpu.MemDepUnit__1.conflictingLoads            0                       # Number of conflicting loads. (Count)
system.cpu.MemDepUnit__1.conflictingStores            0                       # Number of conflicting stores. (Count)
system.cpu.MemDepUnit__2.insertedLoads              0                       # Number of loads inserted to the mem dependence unit. (Count)
system.cpu.MemDepUnit__2.insertedStores             0                       # Number of stores inserted to the mem dependence unit. (Count)
system.cpu.MemDepUnit__2.conflictingLoads            0                       # Number of conflicting loads. (Count)
system.cpu.MemDepUnit__2.conflictingStores            0                       # Number of conflicting stores. (Count)
system.cpu.MemDepUnit__3.insertedLoads              0                       # Number of loads inserted to the mem dependence unit. (Count)
system.cpu.MemDepUnit__3.insertedStores             0                       # Number of stores inserted to the mem dependence unit. (Count)
system.cpu.MemDepUnit__3.conflictingLoads            0                       # Number of conflicting loads. (Count)
system.cpu.MemDepUnit__3.conflictingStores            0                       # Number of conflicting stores. (Count)
system.cpu.branchPred.lookups                  670790                       # Number of BP lookups (Count)
system.cpu.branchPred.condPredicted            457989                       # Number of conditional branches predicted (Count)
system.cpu.branchPred.condIncorrect              4978                       # Number of conditional branches incorrect (Count)
system.cpu.branchPred.BTBLookups               477858                       # Number of BTB lookups (Count)
system.cpu.branchPred.BTBHits                  476936                       # Number of BTB hits (Count)
system.cpu.branchPred.BTBHitRatio            0.998071                       # BTB Hit Ratio (Ratio)
system.cpu.branchPred.RASUsed                  101916                       # Number of times the RAS was used to get a target. (Count)
system.cpu.branchPred.RASIncorrect                  6                       # Number of incorrect RAS predictions. (Count)
system.cpu.branchPred.indirectLookups             870                       # Number of indirect predictor lookups. (Count)
system.cpu.branchPred.indirectHits                276                       # Number of indirect target hits. (Count)
system.cpu.branchPred.indirectMisses              594                       # Number of indirect misses. (Count)
system.cpu.branchPred.indirectMispredicted          268                       # Number of mispredicted indirect branches. (Count)
system.cpu.branchPred.loop_predictor.correct       426137                       # Number of times the loop predictor is the provider and the prediction is correct (Count)
system.cpu.branchPred.loop_predictor.wrong         8916                       # Number of times the loop predictor is the provider and the prediction is wrong (Count)
system.cpu.branchPred.tage.longestMatchProviderCorrect       344428                       # Number of times TAGE Longest Match is the provider and the prediction is correct (Count)
system.cpu.branchPred.tage.altMatchProviderCorrect         1323                       # Number of times TAGE Alt Match is the provider and the prediction is correct (Count)
system.cpu.branchPred.tage.bimodalAltMatchProviderCorrect          342                       # Number of times TAGE Alt Match is the bimodal and it is the provider and the prediction is correct (Count)
system.cpu.branchPred.tage.bimodalProviderCorrect        40166                       # Number of times there are no hits on the TAGE tables and the bimodal prediction is correct (Count)
system.cpu.branchPred.tage.longestMatchProviderWrong         1905                       # Number of times TAGE Longest Match is the provider and the prediction is wrong (Count)
system.cpu.branchPred.tage.altMatchProviderWrong          739                       # Number of times TAGE Alt Match is the provider and the prediction is wrong (Count)
system.cpu.branchPred.tage.bimodalAltMatchProviderWrong          144                       # Number of times TAGE Alt Match is the bimodal and it is the provider and the prediction is wrong (Count)
system.cpu.branchPred.tage.bimodalProviderWrong          999                       # Number of times there are no hits on the TAGE tables and the bimodal prediction is wrong (Count)
system.cpu.branchPred.tage.altMatchProviderWouldHaveHit          486                       # Number of times TAGE Longest Match is the provider, the prediction is wrong and Alt Match prediction was correct (Count)
system.cpu.branchPred.tage.longestMatchProviderWouldHaveHit          477                       # Number of times TAGE Alt Match is the provider, the prediction is wrong and Longest Match prediction was correct (Count)
system.cpu.branchPred.tage.longestMatchProvider::0            0                       # TAGE provider for longest match (Count)
system.cpu.branchPred.tage.longestMatchProvider::1        19420                       # TAGE provider for longest match (Count)
system.cpu.branchPred.tage.longestMatchProvider::2         8536                       # TAGE provider for longest match (Count)
system.cpu.branchPred.tage.longestMatchProvider::3         4512                       # TAGE provider for longest match (Count)
system.cpu.branchPred.tage.longestMatchProvider::4        18053                       # TAGE provider for longest match (Count)
system.cpu.branchPred.tage.longestMatchProvider::5        17351                       # TAGE provider for longest match (Count)
system.cpu.branchPred.tage.longestMatchProvider::6         9636                       # TAGE provider for longest match (Count)
system.cpu.branchPred.tage.longestMatchProvider::7        22312                       # TAGE provider for longest match (Count)
system.cpu.branchPred.tage.longestMatchProvider::8        21496                       # TAGE provider for longest match (Count)
system.cpu.branchPred.tage.longestMatchProvider::9         4585                       # TAGE provider for longest match (Count)
system.cpu.branchPred.tage.longestMatchProvider::10        25095                       # TAGE provider for longest match (Count)
system.cpu.branchPred.tage.longestMatchProvider::11        14989                       # TAGE provider for longest match (Count)
system.cpu.branchPred.tage.longestMatchProvider::12       182410                       # TAGE provider for longest match (Count)
system.cpu.branchPred.tage.altMatchProvider::0        22755                       # TAGE provider for alt match (Count)
system.cpu.branchPred.tage.altMatchProvider::1        18523                       # TAGE provider for alt match (Count)
system.cpu.branchPred.tage.altMatchProvider::2        15575                       # TAGE provider for alt match (Count)
system.cpu.branchPred.tage.altMatchProvider::3         6699                       # TAGE provider for alt match (Count)
system.cpu.branchPred.tage.altMatchProvider::4        14644                       # TAGE provider for alt match (Count)
system.cpu.branchPred.tage.altMatchProvider::5        13016                       # TAGE provider for alt match (Count)
system.cpu.branchPred.tage.altMatchProvider::6         9348                       # TAGE provider for alt match (Count)
system.cpu.branchPred.tage.altMatchProvider::7        31535                       # TAGE provider for alt match (Count)
system.cpu.branchPred.tage.altMatchProvider::8        17933                       # TAGE provider for alt match (Count)
system.cpu.branchPred.tage.altMatchProvider::9         5354                       # TAGE provider for alt match (Count)
system.cpu.branchPred.tage.altMatchProvider::10        14491                       # TAGE provider for alt match (Count)
system.cpu.branchPred.tage.altMatchProvider::11       178522                       # TAGE provider for alt match (Count)
system.cpu.branchPred.tage.altMatchProvider::12            0                       # TAGE provider for alt match (Count)
system.cpu.commit.commitSquashedInsts          103967                       # The number of squashed insts skipped by commit (Count)
system.cpu.commit.commitNonSpecStalls              24                       # The number of times commit has been forced to stall to communicate backwards (Count)
system.cpu.commit.branchMispredicts              4648                       # The number of times a branch was mispredicted (Count)
system.cpu.commit.numCommittedDist::samples      5063957                       # Number of insts commited each cycle (Count)
system.cpu.commit.numCommittedDist::mean     2.111602                       # Number of insts commited each cycle (Count)
system.cpu.commit.numCommittedDist::stdev     2.524384                       # Number of insts commited each cycle (Count)
system.cpu.commit.numCommittedDist::underflows            0      0.00%      0.00% # Number of insts commited each cycle (Count)
system.cpu.commit.numCommittedDist::0         1712990     33.83%     33.83% # Number of insts commited each cycle (Count)
system.cpu.commit.numCommittedDist::1         1027154     20.28%     54.11% # Number of insts commited each cycle (Count)
system.cpu.commit.numCommittedDist::2          873951     17.26%     71.37% # Number of insts commited each cycle (Count)
system.cpu.commit.numCommittedDist::3          495223      9.78%     81.15% # Number of insts commited each cycle (Count)
system.cpu.commit.numCommittedDist::4          173195      3.42%     84.57% # Number of insts commited each cycle (Count)
system.cpu.commit.numCommittedDist::5          101197      2.00%     86.57% # Number of insts commited each cycle (Count)
system.cpu.commit.numCommittedDist::6           79450      1.57%     88.14% # Number of insts commited each cycle (Count)
system.cpu.commit.numCommittedDist::7           49506      0.98%     89.11% # Number of insts commited each cycle (Count)
system.cpu.commit.numCommittedDist::8          551291     10.89%    100.00% # Number of insts commited each cycle (Count)
system.cpu.commit.numCommittedDist::overflows            0      0.00%    100.00% # Number of insts commited each cycle (Count)
system.cpu.commit.numCommittedDist::min_value            0                       # Number of insts commited each cycle (Count)
system.cpu.commit.numCommittedDist::max_value            8                       # Number of insts commited each cycle (Count)
system.cpu.commit.numCommittedDist::total      5063957                       # Number of insts commited each cycle (Count)
system.cpu.commit.instsCommitted              6436803                       # Number of instructions committed (Count)
system.cpu.commit.opsCommitted               10693060                       # Number of ops (including micro ops) committed (Count)
system.cpu.commit.memRefs                     3058103                       # Number of memory references committed (Count)
system.cpu.commit.loads                       2243371                       # Number of loads committed (Count)
system.cpu.commit.amos                              0                       # Number of atomic instructions committed (Count)
system.cpu.commit.membars                           4                       # Number of memory barriers committed (Count)
system.cpu.commit.branches                     641846                       # Number of branches committed (Count)
system.cpu.commit.vectorInstructions                0                       # Number of committed Vector instructions. (Count)
system.cpu.commit.floating                       4869                       # Number of committed floating point instructions. (Count)
system.cpu.commit.integer                    10687938                       # Number of committed integer instructions. (Count)
system.cpu.commit.functionCalls                101100                       # Number of function calls committed. (Count)
system.cpu.commit.committedInstType_0::No_OpClass         1320      0.01%      0.01% # Class of committed instruction (Count)
system.cpu.commit.committedInstType_0::IntAlu      7328876     68.54%     68.55% # Class of committed instruction (Count)
system.cpu.commit.committedInstType_0::IntMult       300075      2.81%     71.36% # Class of committed instruction (Count)
system.cpu.commit.committedInstType_0::IntDiv         1538      0.01%     71.37% # Class of committed instruction (Count)
system.cpu.commit.committedInstType_0::FloatAdd           72      0.00%     71.37% # Class of committed instruction (Count)
system.cpu.commit.committedInstType_0::FloatCmp            0      0.00%     71.37% # Class of committed instruction (Count)
system.cpu.commit.committedInstType_0::FloatCvt           32      0.00%     71.37% # Class of committed instruction (Count)
system.cpu.commit.committedInstType_0::FloatMult            0      0.00%     71.37% # Class of committed instruction (Count)
system.cpu.commit.committedInstType_0::FloatMultAcc            0      0.00%     71.37% # Class of committed instruction (Count)
system.cpu.commit.committedInstType_0::FloatDiv            0      0.00%     71.37% # Class of committed instruction (Count)
system.cpu.commit.committedInstType_0::FloatMisc            0      0.00%     71.37% # Class of committed instruction (Count)
system.cpu.commit.committedInstType_0::FloatSqrt            0      0.00%     71.37% # Class of committed instruction (Count)
system.cpu.commit.committedInstType_0::SimdAdd          356      0.00%     71.38% # Class of committed instruction (Count)
system.cpu.commit.committedInstType_0::SimdAddAcc            0      0.00%     71.38% # Class of committed instruction (Count)
system.cpu.commit.committedInstType_0::SimdAlu          755      0.01%     71.38% # Class of committed instruction (Count)
system.cpu.commit.committedInstType_0::SimdCmp            0      0.00%     71.38% # Class of committed instruction (Count)
system.cpu.commit.committedInstType_0::SimdCvt          982      0.01%     71.39% # Class of committed instruction (Count)
system.cpu.commit.committedInstType_0::SimdMisc          801      0.01%     71.40% # Class of committed instruction (Count)
system.cpu.commit.committedInstType_0::SimdMult            0      0.00%     71.40% # Class of committed instruction (Count)
system.cpu.commit.committedInstType_0::SimdMultAcc            0      0.00%     71.40% # Class of committed instruction (Count)
system.cpu.commit.committedInstType_0::SimdShift          150      0.00%     71.40% # Class of committed instruction (Count)
system.cpu.commit.committedInstType_0::SimdShiftAcc            0      0.00%     71.40% # Class of committed instruction (Count)
system.cpu.commit.committedInstType_0::SimdDiv            0      0.00%     71.40% # Class of committed instruction (Count)
system.cpu.commit.committedInstType_0::SimdSqrt            0      0.00%     71.40% # Class of committed instruction (Count)
system.cpu.commit.committedInstType_0::SimdFloatAdd            0      0.00%     71.40% # Class of committed instruction (Count)
system.cpu.commit.committedInstType_0::SimdFloatAlu            0      0.00%     71.40% # Class of committed instruction (Count)
system.cpu.commit.committedInstType_0::SimdFloatCmp            0      0.00%     71.40% # Class of committed instruction (Count)
system.cpu.commit.committedInstType_0::SimdFloatCvt            0      0.00%     71.40% # Class of committed instruction (Count)
system.cpu.commit.committedInstType_0::SimdFloatDiv            0      0.00%     71.40% # Class of committed instruction (Count)
system.cpu.commit.committedInstType_0::SimdFloatMisc            0      0.00%     71.40% # Class of committed instruction (Count)
system.cpu.commit.committedInstType_0::SimdFloatMult            0      0.00%     71.40% # Class of committed instruction (Count)
system.cpu.commit.committedInstType_0::SimdFloatMultAcc            0      0.00%     71.40% # Class of committed instruction (Count)
system.cpu.commit.committedInstType_0::SimdFloatSqrt            0      0.00%     71.40% # Class of committed instruction (Count)
system.cpu.commit.committedInstType_0::SimdReduceAdd            0      0.00%     71.40% # Class of committed instruction (Count)
system.cpu.commit.committedInstType_0::SimdReduceAlu            0      0.00%     71.40% # Class of committed instruction (Count)
system.cpu.commit.committedInstType_0::SimdReduceCmp            0      0.00%     71.40% # Class of committed instruction (Count)
system.cpu.commit.committedInstType_0::SimdFloatReduceAdd            0      0.00%     71.40% # Class of committed instruction (Count)
system.cpu.commit.committedInstType_0::SimdFloatReduceCmp            0      0.00%     71.40% # Class of committed instruction (Count)
system.cpu.commit.committedInstType_0::SimdAes            0      0.00%     71.40% # Class of committed instruction (Count)
system.cpu.commit.committedInstType_0::SimdAesMix            0      0.00%     71.40% # Class of committed instruction (Count)
system.cpu.commit.committedInstType_0::SimdSha1Hash            0      0.00%     71.40% # Class of committed instruction (Count)
system.cpu.commit.committedInstType_0::SimdSha1Hash2            0      0.00%     71.40% # Class of committed instruction (Count)
system.cpu.commit.committedInstType_0::SimdSha256Hash            0      0.00%     71.40% # Class of committed instruction (Count)
system.cpu.commit.committedInstType_0::SimdSha256Hash2            0      0.00%     71.40% # Class of committed instruction (Count)
system.cpu.commit.committedInstType_0::SimdShaSigma2            0      0.00%     71.40% # Class of committed instruction (Count)
system.cpu.commit.committedInstType_0::SimdShaSigma3            0      0.00%     71.40% # Class of committed instruction (Count)
system.cpu.commit.committedInstType_0::SimdPredAlu            0      0.00%     71.40% # Class of committed instruction (Count)
system.cpu.commit.committedInstType_0::MemRead      2242277     20.97%     92.37% # Class of committed instruction (Count)
system.cpu.commit.committedInstType_0::MemWrite       814248      7.61%     99.99% # Class of committed instruction (Count)
system.cpu.commit.committedInstType_0::FloatMemRead         1094      0.01%    100.00% # Class of committed instruction (Count)
system.cpu.commit.committedInstType_0::FloatMemWrite          484      0.00%    100.00% # Class of committed instruction (Count)
system.cpu.commit.committedInstType_0::IprAccess            0      0.00%    100.00% # Class of committed instruction (Count)
system.cpu.commit.committedInstType_0::InstPrefetch            0      0.00%    100.00% # Class of committed instruction (Count)
system.cpu.commit.committedInstType_0::total     10693060                       # Class of committed instruction (Count)
system.cpu.commit.commitEligibleSamples        551291                       # number cycles where commit BW limit reached (Cycle)
system.cpu.dcache.demandHits::cpu.data        1561694                       # number of demand (read+write) hits (Count)
system.cpu.dcache.demandHits::total           1561694                       # number of demand (read+write) hits (Count)
system.cpu.dcache.overallHits::cpu.data       1561694                       # number of overall hits (Count)
system.cpu.dcache.overallHits::total          1561694                       # number of overall hits (Count)
system.cpu.dcache.demandMisses::cpu.data        27931                       # number of demand (read+write) misses (Count)
system.cpu.dcache.demandMisses::total           27931                       # number of demand (read+write) misses (Count)
system.cpu.dcache.overallMisses::cpu.data        27931                       # number of overall misses (Count)
system.cpu.dcache.overallMisses::total          27931                       # number of overall misses (Count)
system.cpu.dcache.demandMissLatency::cpu.data   1751854499                       # number of demand (read+write) miss ticks (Tick)
system.cpu.dcache.demandMissLatency::total   1751854499                       # number of demand (read+write) miss ticks (Tick)
system.cpu.dcache.overallMissLatency::cpu.data   1751854499                       # number of overall miss ticks (Tick)
system.cpu.dcache.overallMissLatency::total   1751854499                       # number of overall miss ticks (Tick)
system.cpu.dcache.demandAccesses::cpu.data      1589625                       # number of demand (read+write) accesses (Count)
system.cpu.dcache.demandAccesses::total       1589625                       # number of demand (read+write) accesses (Count)
system.cpu.dcache.overallAccesses::cpu.data      1589625                       # number of overall (read+write) accesses (Count)
system.cpu.dcache.overallAccesses::total      1589625                       # number of overall (read+write) accesses (Count)
system.cpu.dcache.demandMissRate::cpu.data     0.017571                       # miss rate for demand accesses (Ratio)
system.cpu.dcache.demandMissRate::total      0.017571                       # miss rate for demand accesses (Ratio)
system.cpu.dcache.overallMissRate::cpu.data     0.017571                       # miss rate for overall accesses (Ratio)
system.cpu.dcache.overallMissRate::total     0.017571                       # miss rate for overall accesses (Ratio)
system.cpu.dcache.demandAvgMissLatency::cpu.data 62720.794064                       # average overall miss latency in ticks ((Tick/Count))
system.cpu.dcache.demandAvgMissLatency::total 62720.794064                       # average overall miss latency in ticks ((Tick/Count))
system.cpu.dcache.overallAvgMissLatency::cpu.data 62720.794064                       # average overall miss latency ((Tick/Count))
system.cpu.dcache.overallAvgMissLatency::total 62720.794064                       # average overall miss latency ((Tick/Count))
system.cpu.dcache.blockedCycles::no_mshrs         2839                       # number of cycles access was blocked (Cycle)
system.cpu.dcache.blockedCycles::no_targets            0                       # number of cycles access was blocked (Cycle)
system.cpu.dcache.blockedCauses::no_mshrs           81                       # number of times access was blocked (Count)
system.cpu.dcache.blockedCauses::no_targets            0                       # number of times access was blocked (Count)
system.cpu.dcache.avgBlocked::no_mshrs      35.049383                       # average number of cycles each access was blocked ((Cycle/Count))
system.cpu.dcache.avgBlocked::no_targets          nan                       # average number of cycles each access was blocked ((Cycle/Count))
system.cpu.dcache.writebacks::writebacks        10845                       # number of writebacks (Count)
system.cpu.dcache.writebacks::total             10845                       # number of writebacks (Count)
system.cpu.dcache.demandMshrHits::cpu.data        13290                       # number of demand (read+write) MSHR hits (Count)
system.cpu.dcache.demandMshrHits::total         13290                       # number of demand (read+write) MSHR hits (Count)
system.cpu.dcache.overallMshrHits::cpu.data        13290                       # number of overall MSHR hits (Count)
system.cpu.dcache.overallMshrHits::total        13290                       # number of overall MSHR hits (Count)
system.cpu.dcache.demandMshrMisses::cpu.data        14641                       # number of demand (read+write) MSHR misses (Count)
system.cpu.dcache.demandMshrMisses::total        14641                       # number of demand (read+write) MSHR misses (Count)
system.cpu.dcache.overallMshrMisses::cpu.data        14641                       # number of overall MSHR misses (Count)
system.cpu.dcache.overallMshrMisses::total        14641                       # number of overall MSHR misses (Count)
system.cpu.dcache.demandMshrMissLatency::cpu.data    841366499                       # number of demand (read+write) MSHR miss ticks (Tick)
system.cpu.dcache.demandMshrMissLatency::total    841366499                       # number of demand (read+write) MSHR miss ticks (Tick)
system.cpu.dcache.overallMshrMissLatency::cpu.data    841366499                       # number of overall MSHR miss ticks (Tick)
system.cpu.dcache.overallMshrMissLatency::total    841366499                       # number of overall MSHR miss ticks (Tick)
system.cpu.dcache.demandMshrMissRate::cpu.data     0.009210                       # mshr miss ratio for demand accesses (Ratio)
system.cpu.dcache.demandMshrMissRate::total     0.009210                       # mshr miss ratio for demand accesses (Ratio)
system.cpu.dcache.overallMshrMissRate::cpu.data     0.009210                       # mshr miss ratio for overall accesses (Ratio)
system.cpu.dcache.overallMshrMissRate::total     0.009210                       # mshr miss ratio for overall accesses (Ratio)
system.cpu.dcache.demandAvgMshrMissLatency::cpu.data 57466.463971                       # average overall mshr miss latency ((Tick/Count))
system.cpu.dcache.demandAvgMshrMissLatency::total 57466.463971                       # average overall mshr miss latency ((Tick/Count))
system.cpu.dcache.overallAvgMshrMissLatency::cpu.data 57466.463971                       # average overall mshr miss latency ((Tick/Count))
system.cpu.dcache.overallAvgMshrMissLatency::total 57466.463971                       # average overall mshr miss latency ((Tick/Count))
system.cpu.dcache.replacements                  14575                       # number of replacements (Count)
system.cpu.dcache.LockedRMWReadReq.hits::cpu.data            2                       # number of LockedRMWReadReq hits (Count)
system.cpu.dcache.LockedRMWReadReq.hits::total            2                       # number of LockedRMWReadReq hits (Count)
system.cpu.dcache.LockedRMWReadReq.accesses::cpu.data            2                       # number of LockedRMWReadReq accesses(hits+misses) (Count)
system.cpu.dcache.LockedRMWReadReq.accesses::total            2                       # number of LockedRMWReadReq accesses(hits+misses) (Count)
system.cpu.dcache.LockedRMWReadReq.mshrMissLatency::cpu.data         8000                       # number of LockedRMWReadReq MSHR miss ticks (Tick)
system.cpu.dcache.LockedRMWReadReq.mshrMissLatency::total         8000                       # number of LockedRMWReadReq MSHR miss ticks (Tick)
system.cpu.dcache.LockedRMWReadReq.avgMshrMissLatency::cpu.data          inf                       # average LockedRMWReadReq mshr miss latency ((Tick/Count))
system.cpu.dcache.LockedRMWReadReq.avgMshrMissLatency::total          inf                       # average LockedRMWReadReq mshr miss latency ((Tick/Count))
system.cpu.dcache.LockedRMWWriteReq.hits::cpu.data            2                       # number of LockedRMWWriteReq hits (Count)
system.cpu.dcache.LockedRMWWriteReq.hits::total            2                       # number of LockedRMWWriteReq hits (Count)
system.cpu.dcache.LockedRMWWriteReq.accesses::cpu.data            2                       # number of LockedRMWWriteReq accesses(hits+misses) (Count)
system.cpu.dcache.LockedRMWWriteReq.accesses::total            2                       # number of LockedRMWWriteReq accesses(hits+misses) (Count)
system.cpu.dcache.ReadReq.hits::cpu.data       754188                       # number of ReadReq hits (Count)
system.cpu.dcache.ReadReq.hits::total          754188                       # number of ReadReq hits (Count)
system.cpu.dcache.ReadReq.misses::cpu.data        20704                       # number of ReadReq misses (Count)
system.cpu.dcache.ReadReq.misses::total         20704                       # number of ReadReq misses (Count)
system.cpu.dcache.ReadReq.missLatency::cpu.data   1374526500                       # number of ReadReq miss ticks (Tick)
system.cpu.dcache.ReadReq.missLatency::total   1374526500                       # number of ReadReq miss ticks (Tick)
system.cpu.dcache.ReadReq.accesses::cpu.data       774892                       # number of ReadReq accesses(hits+misses) (Count)
system.cpu.dcache.ReadReq.accesses::total       774892                       # number of ReadReq accesses(hits+misses) (Count)
system.cpu.dcache.ReadReq.missRate::cpu.data     0.026719                       # miss rate for ReadReq accesses (Ratio)
system.cpu.dcache.ReadReq.missRate::total     0.026719                       # miss rate for ReadReq accesses (Ratio)
system.cpu.dcache.ReadReq.avgMissLatency::cpu.data 66389.417504                       # average ReadReq miss latency ((Tick/Count))
system.cpu.dcache.ReadReq.avgMissLatency::total 66389.417504                       # average ReadReq miss latency ((Tick/Count))
system.cpu.dcache.ReadReq.mshrHits::cpu.data        13280                       # number of ReadReq MSHR hits (Count)
system.cpu.dcache.ReadReq.mshrHits::total        13280                       # number of ReadReq MSHR hits (Count)
system.cpu.dcache.ReadReq.mshrMisses::cpu.data         7424                       # number of ReadReq MSHR misses (Count)
system.cpu.dcache.ReadReq.mshrMisses::total         7424                       # number of ReadReq MSHR misses (Count)
system.cpu.dcache.ReadReq.mshrMissLatency::cpu.data    471553000                       # number of ReadReq MSHR miss ticks (Tick)
system.cpu.dcache.ReadReq.mshrMissLatency::total    471553000                       # number of ReadReq MSHR miss ticks (Tick)
system.cpu.dcache.ReadReq.mshrMissRate::cpu.data     0.009581                       # mshr miss rate for ReadReq accesses (Ratio)
system.cpu.dcache.ReadReq.mshrMissRate::total     0.009581                       # mshr miss rate for ReadReq accesses (Ratio)
system.cpu.dcache.ReadReq.avgMshrMissLatency::cpu.data 63517.376078                       # average ReadReq mshr miss latency ((Tick/Count))
system.cpu.dcache.ReadReq.avgMshrMissLatency::total 63517.376078                       # average ReadReq mshr miss latency ((Tick/Count))
system.cpu.dcache.WriteReq.hits::cpu.data       807506                       # number of WriteReq hits (Count)
system.cpu.dcache.WriteReq.hits::total         807506                       # number of WriteReq hits (Count)
system.cpu.dcache.WriteReq.misses::cpu.data         7227                       # number of WriteReq misses (Count)
system.cpu.dcache.WriteReq.misses::total         7227                       # number of WriteReq misses (Count)
system.cpu.dcache.WriteReq.missLatency::cpu.data    377327999                       # number of WriteReq miss ticks (Tick)
system.cpu.dcache.WriteReq.missLatency::total    377327999                       # number of WriteReq miss ticks (Tick)
system.cpu.dcache.WriteReq.accesses::cpu.data       814733                       # number of WriteReq accesses(hits+misses) (Count)
system.cpu.dcache.WriteReq.accesses::total       814733                       # number of WriteReq accesses(hits+misses) (Count)
system.cpu.dcache.WriteReq.missRate::cpu.data     0.008870                       # miss rate for WriteReq accesses (Ratio)
system.cpu.dcache.WriteReq.missRate::total     0.008870                       # miss rate for WriteReq accesses (Ratio)
system.cpu.dcache.WriteReq.avgMissLatency::cpu.data 52210.875744                       # average WriteReq miss latency ((Tick/Count))
system.cpu.dcache.WriteReq.avgMissLatency::total 52210.875744                       # average WriteReq miss latency ((Tick/Count))
system.cpu.dcache.WriteReq.mshrHits::cpu.data           10                       # number of WriteReq MSHR hits (Count)
system.cpu.dcache.WriteReq.mshrHits::total           10                       # number of WriteReq MSHR hits (Count)
system.cpu.dcache.WriteReq.mshrMisses::cpu.data         7217                       # number of WriteReq MSHR misses (Count)
system.cpu.dcache.WriteReq.mshrMisses::total         7217                       # number of WriteReq MSHR misses (Count)
system.cpu.dcache.WriteReq.mshrMissLatency::cpu.data    369813499                       # number of WriteReq MSHR miss ticks (Tick)
system.cpu.dcache.WriteReq.mshrMissLatency::total    369813499                       # number of WriteReq MSHR miss ticks (Tick)
system.cpu.dcache.WriteReq.mshrMissRate::cpu.data     0.008858                       # mshr miss rate for WriteReq accesses (Ratio)
system.cpu.dcache.WriteReq.mshrMissRate::total     0.008858                       # mshr miss rate for WriteReq accesses (Ratio)
system.cpu.dcache.WriteReq.avgMshrMissLatency::cpu.data 51241.997922                       # average WriteReq mshr miss latency ((Tick/Count))
system.cpu.dcache.WriteReq.avgMshrMissLatency::total 51241.997922                       # average WriteReq mshr miss latency ((Tick/Count))
system.cpu.dcache.power_state.pwrStateResidencyTicks::UNDEFINED   2645369500                       # Cumulative time (in ticks) in various power states (Tick)
system.cpu.dcache.tags.tagsInUse            63.944669                       # Average ticks per tags in use ((Tick/Count))
system.cpu.dcache.tags.totalRefs              1576339                       # Total number of references to valid blocks. (Count)
system.cpu.dcache.tags.sampledRefs              14639                       # Sample count of references to valid blocks. (Count)
system.cpu.dcache.tags.avgRefs             107.680784                       # Average number of references to valid blocks. ((Count/Count))
system.cpu.dcache.tags.warmupTick             8803500                       # The tick when the warmup percentage was hit. (Tick)
system.cpu.dcache.tags.occupancies::cpu.data    63.944669                       # Average occupied blocks per tick, per requestor ((Count/Tick))
system.cpu.dcache.tags.avgOccs::cpu.data     0.999135                       # Average percentage of cache occupancy ((Ratio/Tick))
system.cpu.dcache.tags.avgOccs::total        0.999135                       # Average percentage of cache occupancy ((Ratio/Tick))
system.cpu.dcache.tags.occupanciesTaskId::1024           64                       # Occupied blocks per task id (Count)
system.cpu.dcache.tags.ageTaskId_1024::0           46                       # Occupied blocks per task id, per block age (Count)
system.cpu.dcache.tags.ageTaskId_1024::1           18                       # Occupied blocks per task id, per block age (Count)
system.cpu.dcache.tags.ratioOccsTaskId::1024            1                       # Ratio of occupied blocks and all blocks, per task id (Ratio)
system.cpu.dcache.tags.tagAccesses            3193897                       # Number of tag accesses (Count)
system.cpu.dcache.tags.dataAccesses           3193897                       # Number of data accesses (Count)
system.cpu.dcache.tags.power_state.pwrStateResidencyTicks::UNDEFINED   2645369500                       # Cumulative time (in ticks) in various power states (Tick)
system.cpu.decode.idleCycles                   443264                       # Number of cycles decode is idle (Cycle)
system.cpu.decode.blockedCycles               3206348                       # Number of cycles decode is blocked (Cycle)
system.cpu.decode.runCycles                    626026                       # Number of cycles decode is running (Cycle)
system.cpu.decode.unblockCycles                799353                       # Number of cycles decode is unblocking (Cycle)
system.cpu.decode.squashCycles                   4919                       # Number of cycles decode is squashing (Cycle)
system.cpu.decode.branchResolved               472336                       # Number of times decode resolved a branch (Count)
system.cpu.decode.branchMispred                   626                       # Number of times decode detected a branch misprediction (Count)
system.cpu.decode.decodedInsts               10832444                       # Number of instructions handled by decode (Count)
system.cpu.decode.squashedInsts                  2885                       # Number of squashed instructions handled by decode (Count)
system.cpu.fetch.icacheStallCycles             996060                       # Number of cycles fetch is stalled on an Icache miss (Cycle)
system.cpu.fetch.insts                        6575608                       # Number of instructions fetch has processed (Count)
system.cpu.fetch.branches                      670790                       # Number of branches that fetch encountered (Count)
system.cpu.fetch.predictedBranches             579128                       # Number of branches that fetch has predicted taken (Count)
system.cpu.fetch.cycles                       4075581                       # Number of cycles fetch has run and was not squashing or blocked (Cycle)
system.cpu.fetch.squashCycles                   11084                       # Number of cycles fetch has spent squashing (Cycle)
system.cpu.fetch.miscStallCycles                  331                       # Number of cycles fetch has spent waiting on interrupts, or bad addresses, or out of MSHRs (Cycle)
system.cpu.fetch.pendingTrapStallCycles          2362                       # Number of stall cycles due to pending traps (Cycle)
system.cpu.fetch.icacheWaitRetryStallCycles           34                       # Number of stall cycles due to full MSHR (Cycle)
system.cpu.fetch.cacheLines                    891236                       # Number of cache lines fetched (Count)
system.cpu.fetch.icacheSquashes                  1910                       # Number of outstanding Icache misses that were squashed (Count)
system.cpu.fetch.nisnDist::samples            5079910                       # Number of instructions fetched each cycle (Total) (Count)
system.cpu.fetch.nisnDist::mean              2.153987                       # Number of instructions fetched each cycle (Total) (Count)
system.cpu.fetch.nisnDist::stdev             3.199864                       # Number of instructions fetched each cycle (Total) (Count)
system.cpu.fetch.nisnDist::underflows               0      0.00%      0.00% # Number of instructions fetched each cycle (Total) (Count)
system.cpu.fetch.nisnDist::0                  3143455     61.88%     61.88% # Number of instructions fetched each cycle (Total) (Count)
system.cpu.fetch.nisnDist::1                   322626      6.35%     68.23% # Number of instructions fetched each cycle (Total) (Count)
system.cpu.fetch.nisnDist::2                    18713      0.37%     68.60% # Number of instructions fetched each cycle (Total) (Count)
system.cpu.fetch.nisnDist::3                   165591      3.26%     71.86% # Number of instructions fetched each cycle (Total) (Count)
system.cpu.fetch.nisnDist::4                   121645      2.39%     74.25% # Number of instructions fetched each cycle (Total) (Count)
system.cpu.fetch.nisnDist::5                   121590      2.39%     76.65% # Number of instructions fetched each cycle (Total) (Count)
system.cpu.fetch.nisnDist::6                   140353      2.76%     79.41% # Number of instructions fetched each cycle (Total) (Count)
system.cpu.fetch.nisnDist::7                   218909      4.31%     83.72% # Number of instructions fetched each cycle (Total) (Count)
system.cpu.fetch.nisnDist::8                   827028     16.28%    100.00% # Number of instructions fetched each cycle (Total) (Count)
system.cpu.fetch.nisnDist::overflows                0      0.00%    100.00% # Number of instructions fetched each cycle (Total) (Count)
system.cpu.fetch.nisnDist::min_value                0                       # Number of instructions fetched each cycle (Total) (Count)
system.cpu.fetch.nisnDist::max_value                8                       # Number of instructions fetched each cycle (Total) (Count)
system.cpu.fetch.nisnDist::total              5079910                       # Number of instructions fetched each cycle (Total) (Count)
system.cpu.fetch.branchRate                  0.126786                       # Number of branch fetches per cycle (Ratio)
system.cpu.fetch.rate                        1.242852                       # Number of inst fetches per cycle ((Count/Cycle))
system.cpu.icache.demandHits::cpu.inst         887365                       # number of demand (read+write) hits (Count)
system.cpu.icache.demandHits::total            887365                       # number of demand (read+write) hits (Count)
system.cpu.icache.overallHits::cpu.inst        887365                       # number of overall hits (Count)
system.cpu.icache.overallHits::total           887365                       # number of overall hits (Count)
system.cpu.icache.demandMisses::cpu.inst         3871                       # number of demand (read+write) misses (Count)
system.cpu.icache.demandMisses::total            3871                       # number of demand (read+write) misses (Count)
system.cpu.icache.overallMisses::cpu.inst         3871                       # number of overall misses (Count)
system.cpu.icache.overallMisses::total           3871                       # number of overall misses (Count)
system.cpu.icache.demandMissLatency::cpu.inst    226244999                       # number of demand (read+write) miss ticks (Tick)
system.cpu.icache.demandMissLatency::total    226244999                       # number of demand (read+write) miss ticks (Tick)
system.cpu.icache.overallMissLatency::cpu.inst    226244999                       # number of overall miss ticks (Tick)
system.cpu.icache.overallMissLatency::total    226244999                       # number of overall miss ticks (Tick)
system.cpu.icache.demandAccesses::cpu.inst       891236                       # number of demand (read+write) accesses (Count)
system.cpu.icache.demandAccesses::total        891236                       # number of demand (read+write) accesses (Count)
system.cpu.icache.overallAccesses::cpu.inst       891236                       # number of overall (read+write) accesses (Count)
system.cpu.icache.overallAccesses::total       891236                       # number of overall (read+write) accesses (Count)
system.cpu.icache.demandMissRate::cpu.inst     0.004343                       # miss rate for demand accesses (Ratio)
system.cpu.icache.demandMissRate::total      0.004343                       # miss rate for demand accesses (Ratio)
system.cpu.icache.overallMissRate::cpu.inst     0.004343                       # miss rate for overall accesses (Ratio)
system.cpu.icache.overallMissRate::total     0.004343                       # miss rate for overall accesses (Ratio)
system.cpu.icache.demandAvgMissLatency::cpu.inst 58446.137691                       # average overall miss latency in ticks ((Tick/Count))
system.cpu.icache.demandAvgMissLatency::total 58446.137691                       # average overall miss latency in ticks ((Tick/Count))
system.cpu.icache.overallAvgMissLatency::cpu.inst 58446.137691                       # average overall miss latency ((Tick/Count))
system.cpu.icache.overallAvgMissLatency::total 58446.137691                       # average overall miss latency ((Tick/Count))
system.cpu.icache.blockedCycles::no_mshrs          609                       # number of cycles access was blocked (Cycle)
system.cpu.icache.blockedCycles::no_targets            0                       # number of cycles access was blocked (Cycle)
system.cpu.icache.blockedCauses::no_mshrs           12                       # number of times access was blocked (Count)
system.cpu.icache.blockedCauses::no_targets            0                       # number of times access was blocked (Count)
system.cpu.icache.avgBlocked::no_mshrs      50.750000                       # average number of cycles each access was blocked ((Cycle/Count))
system.cpu.icache.avgBlocked::no_targets          nan                       # average number of cycles each access was blocked ((Cycle/Count))
system.cpu.icache.writebacks::writebacks            1                       # number of writebacks (Count)
system.cpu.icache.writebacks::total                 1                       # number of writebacks (Count)
system.cpu.icache.demandMshrHits::cpu.inst          578                       # number of demand (read+write) MSHR hits (Count)
system.cpu.icache.demandMshrHits::total           578                       # number of demand (read+write) MSHR hits (Count)
system.cpu.icache.overallMshrHits::cpu.inst          578                       # number of overall MSHR hits (Count)
system.cpu.icache.overallMshrHits::total          578                       # number of overall MSHR hits (Count)
system.cpu.icache.demandMshrMisses::cpu.inst         3293                       # number of demand (read+write) MSHR misses (Count)
system.cpu.icache.demandMshrMisses::total         3293                       # number of demand (read+write) MSHR misses (Count)
system.cpu.icache.overallMshrMisses::cpu.inst         3293                       # number of overall MSHR misses (Count)
system.cpu.icache.overallMshrMisses::total         3293                       # number of overall MSHR misses (Count)
system.cpu.icache.demandMshrMissLatency::cpu.inst    193049000                       # number of demand (read+write) MSHR miss ticks (Tick)
system.cpu.icache.demandMshrMissLatency::total    193049000                       # number of demand (read+write) MSHR miss ticks (Tick)
system.cpu.icache.overallMshrMissLatency::cpu.inst    193049000                       # number of overall MSHR miss ticks (Tick)
system.cpu.icache.overallMshrMissLatency::total    193049000                       # number of overall MSHR miss ticks (Tick)
system.cpu.icache.demandMshrMissRate::cpu.inst     0.003695                       # mshr miss ratio for demand accesses (Ratio)
system.cpu.icache.demandMshrMissRate::total     0.003695                       # mshr miss ratio for demand accesses (Ratio)
system.cpu.icache.overallMshrMissRate::cpu.inst     0.003695                       # mshr miss ratio for overall accesses (Ratio)
system.cpu.icache.overallMshrMissRate::total     0.003695                       # mshr miss ratio for overall accesses (Ratio)
system.cpu.icache.demandAvgMshrMissLatency::cpu.inst 58624.051017                       # average overall mshr miss latency ((Tick/Count))
system.cpu.icache.demandAvgMshrMissLatency::total 58624.051017                       # average overall mshr miss latency ((Tick/Count))
system.cpu.icache.overallAvgMshrMissLatency::cpu.inst 58624.051017                       # average overall mshr miss latency ((Tick/Count))
system.cpu.icache.overallAvgMshrMissLatency::total 58624.051017                       # average overall mshr miss latency ((Tick/Count))
system.cpu.icache.replacements                   3226                       # number of replacements (Count)
system.cpu.icache.ReadReq.hits::cpu.inst       887365                       # number of ReadReq hits (Count)
system.cpu.icache.ReadReq.hits::total          887365                       # number of ReadReq hits (Count)
system.cpu.icache.ReadReq.misses::cpu.inst         3871                       # number of ReadReq misses (Count)
system.cpu.icache.ReadReq.misses::total          3871                       # number of ReadReq misses (Count)
system.cpu.icache.ReadReq.missLatency::cpu.inst    226244999                       # number of ReadReq miss ticks (Tick)
system.cpu.icache.ReadReq.missLatency::total    226244999                       # number of ReadReq miss ticks (Tick)
system.cpu.icache.ReadReq.accesses::cpu.inst       891236                       # number of ReadReq accesses(hits+misses) (Count)
system.cpu.icache.ReadReq.accesses::total       891236                       # number of ReadReq accesses(hits+misses) (Count)
system.cpu.icache.ReadReq.missRate::cpu.inst     0.004343                       # miss rate for ReadReq accesses (Ratio)
system.cpu.icache.ReadReq.missRate::total     0.004343                       # miss rate for ReadReq accesses (Ratio)
system.cpu.icache.ReadReq.avgMissLatency::cpu.inst 58446.137691                       # average ReadReq miss latency ((Tick/Count))
system.cpu.icache.ReadReq.avgMissLatency::total 58446.137691                       # average ReadReq miss latency ((Tick/Count))
system.cpu.icache.ReadReq.mshrHits::cpu.inst          578                       # number of ReadReq MSHR hits (Count)
system.cpu.icache.ReadReq.mshrHits::total          578                       # number of ReadReq MSHR hits (Count)
system.cpu.icache.ReadReq.mshrMisses::cpu.inst         3293                       # number of ReadReq MSHR misses (Count)
system.cpu.icache.ReadReq.mshrMisses::total         3293                       # number of ReadReq MSHR misses (Count)
system.cpu.icache.ReadReq.mshrMissLatency::cpu.inst    193049000                       # number of ReadReq MSHR miss ticks (Tick)
system.cpu.icache.ReadReq.mshrMissLatency::total    193049000                       # number of ReadReq MSHR miss ticks (Tick)
system.cpu.icache.ReadReq.mshrMissRate::cpu.inst     0.003695                       # mshr miss rate for ReadReq accesses (Ratio)
system.cpu.icache.ReadReq.mshrMissRate::total     0.003695                       # mshr miss rate for ReadReq accesses (Ratio)
system.cpu.icache.ReadReq.avgMshrMissLatency::cpu.inst 58624.051017                       # average ReadReq mshr miss latency ((Tick/Count))
system.cpu.icache.ReadReq.avgMshrMissLatency::total 58624.051017                       # average ReadReq mshr miss latency ((Tick/Count))
system.cpu.icache.power_state.pwrStateResidencyTicks::UNDEFINED   2645369500                       # Cumulative time (in ticks) in various power states (Tick)
system.cpu.icache.tags.tagsInUse            63.893671                       # Average ticks per tags in use ((Tick/Count))
system.cpu.icache.tags.totalRefs               890657                       # Total number of references to valid blocks. (Count)
system.cpu.icache.tags.sampledRefs               3292                       # Sample count of references to valid blocks. (Count)
system.cpu.icache.tags.avgRefs             270.551944                       # Average number of references to valid blocks. ((Count/Count))
system.cpu.icache.tags.warmupTick            11085000                       # The tick when the warmup percentage was hit. (Tick)
system.cpu.icache.tags.occupancies::cpu.inst    63.893671                       # Average occupied blocks per tick, per requestor ((Count/Tick))
system.cpu.icache.tags.avgOccs::cpu.inst     0.998339                       # Average percentage of cache occupancy ((Ratio/Tick))
system.cpu.icache.tags.avgOccs::total        0.998339                       # Average percentage of cache occupancy ((Ratio/Tick))
system.cpu.icache.tags.occupanciesTaskId::1024           64                       # Occupied blocks per task id (Count)
system.cpu.icache.tags.ageTaskId_1024::0           63                       # Occupied blocks per task id, per block age (Count)
system.cpu.icache.tags.ageTaskId_1024::1            1                       # Occupied blocks per task id, per block age (Count)
system.cpu.icache.tags.ratioOccsTaskId::1024            1                       # Ratio of occupied blocks and all blocks, per task id (Ratio)
system.cpu.icache.tags.tagAccesses            1785764                       # Number of tag accesses (Count)
system.cpu.icache.tags.dataAccesses           1785764                       # Number of data accesses (Count)
system.cpu.icache.tags.power_state.pwrStateResidencyTicks::UNDEFINED   2645369500                       # Cumulative time (in ticks) in various power states (Tick)
system.cpu.iew.idleCycles                           0                       # Number of cycles IEW is idle (Cycle)
system.cpu.iew.squashCycles                      4919                       # Number of cycles IEW is squashing (Cycle)
system.cpu.iew.blockCycles                      11034                       # Number of cycles IEW is blocking (Cycle)
system.cpu.iew.unblockCycles                     2535                       # Number of cycles IEW is unblocking (Cycle)
system.cpu.iew.dispatchedInsts               10798848                       # Number of instructions dispatched to IQ (Count)
system.cpu.iew.dispSquashedInsts                  562                       # Number of squashed instructions skipped by dispatch (Count)
system.cpu.iew.dispLoadInsts                  2256644                       # Number of dispatched load instructions (Count)
system.cpu.iew.dispStoreInsts                  818711                       # Number of dispatched store instructions (Count)
system.cpu.iew.dispNonSpecInsts                    53                       # Number of dispatched non-speculative instructions (Count)
system.cpu.iew.iqFullEvents                         0                       # Number of times the IQ has become full, causing a stall (Count)
system.cpu.iew.lsqFullEvents                     2532                       # Number of times the LSQ has become full, causing a stall (Count)
system.cpu.iew.memOrderViolationEvents            128                       # Number of memory order violations (Count)
system.cpu.iew.predictedTakenIncorrect           2137                       # Number of branches that were predicted taken incorrectly (Count)
system.cpu.iew.predictedNotTakenIncorrect         3122                       # Number of branches that were predicted not taken incorrectly (Count)
system.cpu.iew.branchMispredicts                 5259                       # Number of branch mispredicts detected at execute (Count)
system.cpu.iew.instsToCommit                 10765919                       # Cumulative count of insts sent to commit (Count)
system.cpu.iew.writebackCount                10764765                       # Cumulative count of insts written-back (Count)
system.cpu.iew.producerInst                   8037465                       # Number of instructions producing a value (Count)
system.cpu.iew.consumerInst                  10908108                       # Number of instructions consuming a value (Count)
system.cpu.iew.wbRate                        2.034643                       # Insts written-back per cycle ((Count/Cycle))
system.cpu.iew.wbFanout                      0.736834                       # Average fanout of values written-back ((Count/Count))
system.cpu.interrupts.clk_domain.clock           8000                       # Clock period in ticks (Tick)
system.cpu.lsq0.forwLoads                     1477443                       # Number of loads that had data forwarded from stores (Count)
system.cpu.lsq0.squashedLoads                   13273                       # Number of loads squashed (Count)
[...]
system.mem_ctrls.dram.numReads::cpu.inst         2357                       # Number of read requests responded to by this memory (Count)
system.mem_ctrls.dram.numReads::cpu.data        10981                       # Number of read requests responded to by this memory (Count)
system.mem_ctrls.dram.numReads::total           13338                       # Number of read requests responded to by this memory (Count)
system.mem_ctrls.dram.numWrites::writebacks         7939                       # Number of write requests responded to by this memory (Count)
system.mem_ctrls.dram.numWrites::total           7939                       # Number of write requests responded to by this memory (Count)
system.mem_ctrls.dram.bwRead::cpu.inst       57023414                       # Total read bandwidth from this memory ((Byte/Second))
system.mem_ctrls.dram.bwRead::cpu.data      265665723                       # Total read bandwidth from this memory ((Byte/Second))
system.mem_ctrls.dram.bwRead::total         322689137                       # Total read bandwidth from this memory ((Byte/Second))
system.mem_ctrls.dram.bwInstRead::cpu.inst     57023414                       # Instruction read bandwidth from this memory ((Byte/Second))
system.mem_ctrls.dram.bwInstRead::total      57023414                       # Instruction read bandwidth from this memory ((Byte/Second))
system.mem_ctrls.dram.bwWrite::writebacks    192069955                       # Write bandwidth from this memory ((Byte/Second))
system.mem_ctrls.dram.bwWrite::total        192069955                       # Write bandwidth from this memory ((Byte/Second))
system.mem_ctrls.dram.bwTotal::writebacks    192069955                       # Total bandwidth to/from this memory ((Byte/Second))
system.mem_ctrls.dram.bwTotal::cpu.inst      57023414                       # Total bandwidth to/from this memory ((Byte/Second))
system.mem_ctrls.dram.bwTotal::cpu.data     265665723                       # Total bandwidth to/from this memory ((Byte/Second))
system.mem_ctrls.dram.bwTotal::total        514759091                       # Total bandwidth to/from this memory ((Byte/Second))
system.mem_ctrls.dram.readBursts                12967                       # Number of DRAM read bursts (Count)
system.mem_ctrls.dram.writeBursts                7915                       # Number of DRAM write bursts (Count)
system.mem_ctrls.dram.perBankRdBursts::0          516                       # Per bank write bursts (Count)
system.mem_ctrls.dram.perBankRdBursts::1          374                       # Per bank write bursts (Count)
system.mem_ctrls.dram.perBankRdBursts::2          349                       # Per bank write bursts (Count)
system.mem_ctrls.dram.perBankRdBursts::3          238                       # Per bank write bursts (Count)
system.mem_ctrls.dram.perBankRdBursts::4          312                       # Per bank write bursts (Count)
system.mem_ctrls.dram.perBankRdBursts::5          379                       # Per bank write bursts (Count)
system.mem_ctrls.dram.perBankRdBursts::6          589                       # Per bank write bursts (Count)
system.mem_ctrls.dram.perBankRdBursts::7          226                       # Per bank write bursts (Count)
system.mem_ctrls.dram.perBankRdBursts::8          988                       # Per bank write bursts (Count)
system.mem_ctrls.dram.perBankRdBursts::9         2058                       # Per bank write bursts (Count)
system.mem_ctrls.dram.perBankRdBursts::10         1818                       # Per bank write bursts (Count)
system.mem_ctrls.dram.perBankRdBursts::11         1638                       # Per bank write bursts (Count)
system.mem_ctrls.dram.perBankRdBursts::12         1444                       # Per bank write bursts (Count)
system.mem_ctrls.dram.perBankRdBursts::13         1102                       # Per bank write bursts (Count)
system.mem_ctrls.dram.perBankRdBursts::14          507                       # Per bank write bursts (Count)
system.mem_ctrls.dram.perBankRdBursts::15          429                       # Per bank write bursts (Count)
system.mem_ctrls.dram.perBankWrBursts::0           45                       # Per bank write bursts (Count)
system.mem_ctrls.dram.perBankWrBursts::1           43                       # Per bank write bursts (Count)
system.mem_ctrls.dram.perBankWrBursts::2           63                       # Per bank write bursts (Count)
system.mem_ctrls.dram.perBankWrBursts::3           58                       # Per bank write bursts (Count)
system.mem_ctrls.dram.perBankWrBursts::4            0                       # Per bank write bursts (Count)
system.mem_ctrls.dram.perBankWrBursts::5          131                       # Per bank write bursts (Count)
system.mem_ctrls.dram.perBankWrBursts::6          303                       # Per bank write bursts (Count)
system.mem_ctrls.dram.perBankWrBursts::7           14                       # Per bank write bursts (Count)
system.mem_ctrls.dram.perBankWrBursts::8          681                       # Per bank write bursts (Count)
system.mem_ctrls.dram.perBankWrBursts::9         1642                       # Per bank write bursts (Count)
system.mem_ctrls.dram.perBankWrBursts::10         1579                       # Per bank write bursts (Count)
system.mem_ctrls.dram.perBankWrBursts::11         1269                       # Per bank write bursts (Count)
system.mem_ctrls.dram.perBankWrBursts::12         1269                       # Per bank write bursts (Count)
system.mem_ctrls.dram.perBankWrBursts::13          662                       # Per bank write bursts (Count)
system.mem_ctrls.dram.perBankWrBursts::14          156                       # Per bank write bursts (Count)
system.mem_ctrls.dram.perBankWrBursts::15            0                       # Per bank write bursts (Count)
system.mem_ctrls.dram.totQLat               109530500                       # Total ticks spent queuing (Tick)
system.mem_ctrls.dram.totBusLat              64835000                       # Total ticks spent in databus transfers (Tick)
system.mem_ctrls.dram.totMemAccLat          352661750                       # Total ticks spent from burst creation until serviced by the DRAM (Tick)
system.mem_ctrls.dram.avgQLat                 8446.87                       # Average queueing delay per DRAM burst ((Tick/Count))
system.mem_ctrls.dram.avgBusLat               5000.00                       # Average bus latency per DRAM burst ((Tick/Count))
system.mem_ctrls.dram.avgMemAccLat           27196.87                       # Average memory access latency per DRAM burst ((Tick/Count))
system.mem_ctrls.dram.readRowHits               11174                       # Number of row buffer hits during reads (Count)
system.mem_ctrls.dram.writeRowHits               7157                       # Number of row buffer hits during writes (Count)
system.mem_ctrls.dram.readRowHitRate            86.17                       # Row buffer hit rate for reads (Ratio)
system.mem_ctrls.dram.writeRowHitRate           90.42                       # Row buffer hit rate for writes (Ratio)
system.mem_ctrls.dram.bytesPerActivate::samples         2539                       # Bytes accessed per row activation (Byte)
system.mem_ctrls.dram.bytesPerActivate::mean   524.931075                       # Bytes accessed per row activation (Byte)
system.mem_ctrls.dram.bytesPerActivate::gmean   332.092240                       # Bytes accessed per row activation (Byte)
system.mem_ctrls.dram.bytesPerActivate::stdev   398.137139                       # Bytes accessed per row activation (Byte)
system.mem_ctrls.dram.bytesPerActivate::0-127          515     20.28%     20.28% # Bytes accessed per row activation (Byte)
system.mem_ctrls.dram.bytesPerActivate::128-255          451     17.76%     38.05% # Bytes accessed per row activation (Byte)
system.mem_ctrls.dram.bytesPerActivate::256-383          211      8.31%     46.36% # Bytes accessed per row activation (Byte)
system.mem_ctrls.dram.bytesPerActivate::384-511          146      5.75%     52.11% # Bytes accessed per row activation (Byte)
system.mem_ctrls.dram.bytesPerActivate::512-639          111      4.37%     56.48% # Bytes accessed per row activation (Byte)
system.mem_ctrls.dram.bytesPerActivate::640-767          110      4.33%     60.81% # Bytes accessed per row activation (Byte)
system.mem_ctrls.dram.bytesPerActivate::768-895          154      6.07%     66.88% # Bytes accessed per row activation (Byte)
system.mem_ctrls.dram.bytesPerActivate::896-1023           80      3.15%     70.03% # Bytes accessed per row activation (Byte)
system.mem_ctrls.dram.bytesPerActivate::1024-1151          761     29.97%    100.00% # Bytes accessed per row activation (Byte)
system.mem_ctrls.dram.bytesPerActivate::total         2539                       # Bytes accessed per row activation (Byte)
system.mem_ctrls.dram.bytesRead                829888                       # Total bytes read (Byte)
system.mem_ctrls.dram.bytesWritten             506560                       # Total bytes written (Byte)
system.mem_ctrls.dram.avgRdBW              313.713453                       # Average DRAM read bandwidth in MiBytes/s ((Byte/Second))
system.mem_ctrls.dram.avgWrBW              191.489317                       # Average DRAM write bandwidth in MiBytes/s ((Byte/Second))
system.mem_ctrls.dram.peakBW                 12800.00                       # Theoretical peak bandwidth in MiByte/s ((Byte/Second))
system.mem_ctrls.dram.busUtil                    3.95                       # Data bus utilization in percentage (Ratio)
system.mem_ctrls.dram.busUtilRead                2.45                       # Data bus utilization in percentage for reads (Ratio)
system.mem_ctrls.dram.busUtilWrite               1.50                       # Data bus utilization in percentage for writes (Ratio)
system.mem_ctrls.dram.pageHitRate               87.78                       # Row buffer hit rate, read and write combined (Ratio)
system.mem_ctrls.dram.power_state.pwrStateResidencyTicks::UNDEFINED   2645369500                       # Cumulative time (in ticks) in various power states (Tick)
system.mem_ctrls.dram.rank0.actEnergy         5119380                       # Energy for activate commands per rank (pJ) (Joule)
system.mem_ctrls.dram.rank0.preEnergy         2698245                       # Energy for precharge commands per rank (pJ) (Joule)
system.mem_ctrls.dram.rank0.readEnergy       21298620                       # Energy for read commands per rank (pJ) (Joule)
system.mem_ctrls.dram.rank0.writeEnergy       3429540                       # Energy for write commands per rank (pJ) (Joule)
system.mem_ctrls.dram.rank0.refreshEnergy 208362960.000000                       # Energy for refresh commands per rank (pJ) (Joule)
system.mem_ctrls.dram.rank0.actBackEnergy    280987770                       # Energy for active background per rank (pJ) (Joule)
system.mem_ctrls.dram.rank0.preBackEnergy    779200800                       # Energy for precharge background per rank (pJ) (Joule)
system.mem_ctrls.dram.rank0.actPowerDownEnergy            0                       # Energy for active power-down per rank (pJ) (Joule)
system.mem_ctrls.dram.rank0.prePowerDownEnergy            0                       # Energy for precharge power-down per rank (pJ) (Joule)
system.mem_ctrls.dram.rank0.selfRefreshEnergy            0                       # Energy for self refresh per rank (pJ) (Joule)
system.mem_ctrls.dram.rank0.totalEnergy    1301097315                       # Total energy per rank (pJ) (Joule)
system.mem_ctrls.dram.rank0.averagePower   491.839539                       # Core power per rank (mW) (Watt)
system.mem_ctrls.dram.rank0.totalIdleTime            0                       # Total Idle time Per DRAM Rank (Tick)
system.mem_ctrls.dram.rank0.pwrStateTime::IDLE   2022746750                       # Time in different power states (Tick)
system.mem_ctrls.dram.rank0.pwrStateTime::REF     88140000                       # Time in different power states (Tick)
system.mem_ctrls.dram.rank0.pwrStateTime::SREF            0                       # Time in different power states (Tick)
system.mem_ctrls.dram.rank0.pwrStateTime::PRE_PDN            0                       # Time in different power states (Tick)
system.mem_ctrls.dram.rank0.pwrStateTime::ACT    534482750                       # Time in different power states (Tick)
system.mem_ctrls.dram.rank0.pwrStateTime::ACT_PDN            0                       # Time in different power states (Tick)
system.mem_ctrls.dram.rank1.actEnergy        13094760                       # Energy for activate commands per rank (pJ) (Joule)
system.mem_ctrls.dram.rank1.preEnergy         6937260                       # Energy for precharge commands per rank (pJ) (Joule)
system.mem_ctrls.dram.rank1.readEnergy       71285760                       # Energy for read commands per rank (pJ) (Joule)
system.mem_ctrls.dram.rank1.writeEnergy      37886760                       # Energy for write commands per rank (pJ) (Joule)
system.mem_ctrls.dram.rank1.refreshEnergy 208362960.000000                       # Energy for refresh commands per rank (pJ) (Joule)
system.mem_ctrls.dram.rank1.actBackEnergy    976276620                       # Energy for active background per rank (pJ) (Joule)
system.mem_ctrls.dram.rank1.preBackEnergy    193694400                       # Energy for precharge background per rank (pJ) (Joule)
system.mem_ctrls.dram.rank1.actPowerDownEnergy            0                       # Energy for active power-down per rank (pJ) (Joule)
system.mem_ctrls.dram.rank1.prePowerDownEnergy            0                       # Energy for precharge power-down per rank (pJ) (Joule)
system.mem_ctrls.dram.rank1.selfRefreshEnergy            0                       # Energy for self refresh per rank (pJ) (Joule)
system.mem_ctrls.dram.rank1.totalEnergy    1507538520                       # Total energy per rank (pJ) (Joule)
system.mem_ctrls.dram.rank1.averagePower   569.878242                       # Core power per rank (mW) (Watt)
system.mem_ctrls.dram.rank1.totalIdleTime            0                       # Total Idle time Per DRAM Rank (Tick)
system.mem_ctrls.dram.rank1.pwrStateTime::IDLE    494598500                       # Time in different power states (Tick)
system.mem_ctrls.dram.rank1.pwrStateTime::REF     88140000                       # Time in different power states (Tick)
system.mem_ctrls.dram.rank1.pwrStateTime::SREF            0                       # Time in different power states (Tick)
system.mem_ctrls.dram.rank1.pwrStateTime::PRE_PDN            0                       # Time in different power states (Tick)
system.mem_ctrls.dram.rank1.pwrStateTime::ACT   2062631000                       # Time in different power states (Tick)
system.mem_ctrls.dram.rank1.pwrStateTime::ACT_PDN            0                       # Time in different power states (Tick)
system.mem_ctrls.power_state.pwrStateResidencyTicks::UNDEFINED   2645369500                       # Cumulative time (in ticks) in various power states (Tick)
system.membus.transDist::ReadResp                8401                       # Transaction distribution (Count)
system.membus.transDist::WritebackDirty          7939                       # Transaction distribution (Count)
system.membus.transDist::CleanEvict              4887                       # Transaction distribution (Count)
system.membus.transDist::ReadExReq               4937                       # Transaction distribution (Count)
system.membus.transDist::ReadExResp              4937                       # Transaction distribution (Count)
system.membus.transDist::ReadSharedReq           8402                       # Transaction distribution (Count)
system.membus.pktCount_system.l2cache.mem_side_port::system.mem_ctrls.port        39503                       # Packet count per connected requestor and responder (Count)
system.membus.pktCount_system.l2cache.mem_side_port::total        39503                       # Packet count per connected requestor and responder (Count)
system.membus.pktCount::total                   39503                       # Packet count per connected requestor and responder (Count)
system.membus.pktSize_system.l2cache.mem_side_port::system.mem_ctrls.port      1361728                       # Cumulative packet size per connected requestor and responder (Byte)
system.membus.pktSize_system.l2cache.mem_side_port::total      1361728                       # Cumulative packet size per connected requestor and responder (Byte)
system.membus.pktSize::total                  1361728                       # Cumulative packet size per connected requestor and responder (Byte)
system.membus.snoops                                0                       # Total snoops (Count)
system.membus.snoopTraffic                          0                       # Total snoop traffic (Byte)
system.membus.snoopFanout::samples              13339                       # Request fanout histogram (Count)
system.membus.snoopFanout::mean                     0                       # Request fanout histogram (Count)
system.membus.snoopFanout::stdev                    0                       # Request fanout histogram (Count)
system.membus.snoopFanout::underflows               0      0.00%      0.00% # Request fanout histogram (Count)
system.membus.snoopFanout::0                    13339    100.00%    100.00% # Request fanout histogram (Count)
system.membus.snoopFanout::1                        0      0.00%    100.00% # Request fanout histogram (Count)
system.membus.snoopFanout::overflows                0      0.00%    100.00% # Request fanout histogram (Count)
system.membus.snoopFanout::min_value                0                       # Request fanout histogram (Count)
system.membus.snoopFanout::max_value                0                       # Request fanout histogram (Count)
system.membus.snoopFanout::total                13339                       # Request fanout histogram (Count)
system.membus.power_state.pwrStateResidencyTicks::UNDEFINED   2645369500                       # Cumulative time (in ticks) in various power states (Tick)
system.membus.reqLayer2.occupancy            28960500                       # Layer occupancy (ticks) (Tick)
system.membus.reqLayer2.utilization               0.0                       # Layer utilization (Ratio)
system.membus.respLayer1.occupancy           36242500                       # Layer occupancy (ticks) (Tick)
system.membus.respLayer1.utilization              0.0                       # Layer utilization (Ratio)
system.membus.snoop_filter.totRequests          26165                       # Total number of requests made to the snoop filter. (Count)
system.membus.snoop_filter.hitSingleRequests        12827                       # Number of requests hitting in the snoop filter with a single holder of the requested data. (Count)
system.membus.snoop_filter.hitMultiRequests            0                       # Number of requests hitting in the snoop filter with multiple (>1) holders of the requested data. (Count)
system.membus.snoop_filter.totSnoops                0                       # Total number of snoops made to the snoop filter. (Count)
system.membus.snoop_filter.hitSingleSnoops            0                       # Number of snoops hitting in the snoop filter with a single holder of the requested data. (Count)
system.membus.snoop_filter.hitMultiSnoops            0                       # Number of snoops hitting in the snoop filter with multiple (>1) holders of the requested data. (Count)
system.workload.inst.arm                            0                       # number of arm instructions executed (Count)
system.workload.inst.quiesce                        0                       # number of quiesce instructions executed (Count)

---------- End Simulation Statistics   ----------
