
---------- Begin Simulation Statistics ----------
simSeconds                                   0.002138                       # Number of seconds simulated (Second)
simTicks                                   2137917000                       # Number of ticks simulated (Tick)
finalTick                                  2137917000                       # Number of ticks from beginning of simulation (restored from checkpoints and never reset) (Tick)
simFreq                                  1000000000000                       # The number of ticks per simulated second ((Tick/Second))
hostSeconds                                     23.66                       # Real time elapsed on the host (Second)
hostTickRate                                 90361183                       # The number of ticks simulated per host second (ticks/s) ((Tick/Second))
hostMemory                                     924580                       # Number of bytes of host memory used (Byte)
simInsts                                      6436803                       # Number of instructions simulated (Count)
simOps                                       10693060                       # Number of ops (including micro ops) simulated (Count)
hostInstRate                                   272057                       # Simulator instruction rate (inst/s) ((Count/Second))
hostOpRate                                     451951                       # Simulator op (including micro ops) rate (op/s) ((Count/Second))
system.clk_domain.clock                           500                       # Clock period in ticks (Tick)
system.clk_domain.voltage_domain.voltage            1                       # Voltage in Volts (Volt)
system.cpu.numCycles                          4275835                       # Number of cpu cycles simulated (Cycle)
system.cpu.numWorkItemsStarted                      0                       # Number of work items this cpu started (Count)
system.cpu.numWorkItemsCompleted                    0                       # Number of work items this cpu completed (Count)
system.cpu.instsAdded                        10851974                       # Number of instructions added to the IQ (excludes non-spec) (Count)
system.cpu.nonSpecInstsAdded                      135                       # Number of non-speculative instructions added to the IQ (Count)
system.cpu.instsIssued                       10809481                       # Number of instructions issued (Count)
system.cpu.squashedInstsIssued                     97                       # Number of squashed instructions issued (Count)
system.cpu.squashedInstsExamined               159008                       # Number of squashed instructions iterated over during squash; mainly for profiling (Count)
system.cpu.squashedOperandsExamined            257105                       # Number of squashed operands that are examined and possibly removed from graph (Count)
system.cpu.squashedNonSpecRemoved                 111                       # Number of squashed non-spec instructions that were removed (Count)
system.cpu.numIssuedDist::samples             4063346                       # Number of insts issued each cycle (Count)
system.cpu.numIssuedDist::mean               2.660241                       # Number of insts issued each cycle (Count)
system.cpu.numIssuedDist::stdev              2.233489                       # Number of insts issued each cycle (Count)
system.cpu.numIssuedDist::underflows                0      0.00%      0.00% # Number of insts issued each cycle (Count)
system.cpu.numIssuedDist::0                   1029461     25.34%     25.34% # Number of insts issued each cycle (Count)
system.cpu.numIssuedDist::1                    457506     11.26%     36.59% # Number of insts issued each cycle (Count)
system.cpu.numIssuedDist::2                    569137     14.01%     50.60% # Number of insts issued each cycle (Count)
system.cpu.numIssuedDist::3                    621656     15.30%     65.90% # Number of insts issued each cycle (Count)
system.cpu.numIssuedDist::4                    387319      9.53%     75.43% # Number of insts issued each cycle (Count)
system.cpu.numIssuedDist::5                    452219     11.13%     86.56% # Number of insts issued each cycle (Count)
system.cpu.numIssuedDist::6                    348716      8.58%     95.14% # Number of insts issued each cycle (Count)
system.cpu.numIssuedDist::7                    132590      3.26%     98.41% # Number of insts issued each cycle (Count)
system.cpu.numIssuedDist::8                     64742      1.59%    100.00% # Number of insts issued each cycle (Count)
system.cpu.numIssuedDist::overflows                 0      0.00%    100.00% # Number of insts issued each cycle (Count)
system.cpu.numIssuedDist::min_value                 0                       # Number of insts issued each cycle (Count)
system.cpu.numIssuedDist::max_value                 8                       # Number of insts issued each cycle (Count)
system.cpu.numIssuedDist::total               4063346                       # Number of insts issued each cycle (Count)
system.cpu.statFuBusy::No_OpClass                   0      0.00%      0.00% # attempts to use FU when none available (Count)
system.cpu.statFuBusy::IntAlu                       0      0.00%      0.00% # attempts to use FU when none available (Count)
system.cpu.statFuBusy::IntMult                      0      0.00%      0.00% # attempts to use FU when none available (Count)
system.cpu.statFuBusy::IntDiv                       0      0.00%      0.00% # attempts to use FU when none available (Count)
system.cpu.statFuBusy::FloatAdd                     0      0.00%      0.00% # attempts to use FU when none available (Count)
system.cpu.statFuBusy::FloatCmp                     0      0.00%      0.00% # attempts to use FU when none available (Count)
system.cpu.statFuBusy::FloatCvt                     0      0.00%      0.00% # attempts to use FU when none available (Count)
system.cpu.statFuBusy::FloatMult                    0      0.00%      0.00% # attempts to use FU when none available (Count)
system.cpu.statFuBusy::FloatMultAcc                 0      0.00%      0.00% # attempts to use FU when none available (Count)
system.cpu.statFuBusy::FloatDiv                     0      0.00%      0.00% # attempts to use FU when none available (Count)
system.cpu.statFuBusy::FloatMisc                    0      0.00%      0.00% # attempts to use FU when none available (Count)
system.cpu.statFuBusy::FloatSqrt                    0      0.00%      0.00% # attempts to use FU when none available (Count)
system.cpu.statFuBusy::SimdAdd                      0      0.00%      0.00% # attempts to use FU when none available (Count)
system.cpu.statFuBusy::SimdAddAcc                   0      0.00%      0.00% # attempts to use FU when none available (Count)
system.cpu.statFuBusy::SimdAlu                     22      0.05%      0.05% # attempts to use FU when none available (Count)
system.cpu.statFuBusy::SimdCmp                      0      0.00%      0.05% # attempts to use FU when none available (Count)
system.cpu.statFuBusy::SimdCvt                      0      0.00%      0.05% # attempts to use FU when none available (Count)
system.cpu.statFuBusy::SimdMisc                     2      0.00%      0.06% # attempts to use FU when none available (Count)
system.cpu.statFuBusy::SimdMult                     0      0.00%      0.06% # attempts to use FU when none available (Count)
system.cpu.statFuBusy::SimdMultAcc                  0      0.00%      0.06% # attempts to use FU when none available (Count)
system.cpu.statFuBusy::SimdShift                    3      0.01%      0.06% # attempts to use FU when none available (Count)
system.cpu.statFuBusy::SimdShiftAcc                 0      0.00%      0.06% # attempts to use FU when none available (Count)
system.cpu.statFuBusy::SimdDiv                      0      0.00%      0.06% # attempts to use FU when none available (Count)
system.cpu.statFuBusy::SimdSqrt                     0      0.00%      0.06% # attempts to use FU when none available (Count)
system.cpu.statFuBusy::SimdFloatAdd                 0      0.00%      0.06% # attempts to use FU when none available (Count)
system.cpu.statFuBusy::SimdFloatAlu                 0      0.00%      0.06% # attempts to use FU when none available (Count)
system.cpu.statFuBusy::SimdFloatCmp                 0      0.00%      0.06% # attempts to use FU when none available (Count)
system.cpu.statFuBusy::SimdFloatCvt                 0      0.00%      0.06% # attempts to use FU when none available (Count)
system.cpu.statFuBusy::SimdFloatDiv                 0      0.00%      0.06% # attempts to use FU when none available (Count)
system.cpu.statFuBusy::SimdFloatMisc                0      0.00%      0.06% # attempts to use FU when none available (Count)
system.cpu.statFuBusy::SimdFloatMult                0      0.00%      0.06% # attempts to use FU when none available (Count)
system.cpu.statFuBusy::SimdFloatMultAcc             0      0.00%      0.06% # attempts to use FU when none available (Count)
system.cpu.statFuBusy::SimdFloatSqrt                0      0.00%      0.06% # attempts to use FU when none available (Count)
system.cpu.statFuBusy::SimdReduceAdd                0      0.00%      0.06% # attempts to use FU when none available (Count)
system.cpu.statFuBusy::SimdReduceAlu                0      0.00%      0.06% # attempts to use FU when none available (Count)
system.cpu.statFuBusy::SimdReduceCmp                0      0.00%      0.06% # attempts to use FU when none available (Count)
system.cpu.statFuBusy::SimdFloatReduceAdd            0      0.00%      0.06% # attempts to use FU when none available (Count)
system.cpu.statFuBusy::SimdFloatReduceCmp            0      0.00%      0.06% # attempts to use FU when none available (Count)
system.cpu.statFuBusy::SimdAes                      0      0.00%      0.06% # attempts to use FU when none available (Count)
system.cpu.statFuBusy::SimdAesMix                   0      0.00%      0.06% # attempts to use FU when none available (Count)
system.cpu.statFuBusy::SimdSha1Hash                 0      0.00%      0.06% # attempts to use FU when none available (Count)
system.cpu.statFuBusy::SimdSha1Hash2                0      0.00%      0.06% # attempts to use FU when none available (Count)
system.cpu.statFuBusy::SimdSha256Hash               0      0.00%      0.06% # attempts to use FU when none available (Count)
system.cpu.statFuBusy::SimdSha256Hash2              0      0.00%      0.06% # attempts to use FU when none available (Count)
system.cpu.statFuBusy::SimdShaSigma2                0      0.00%      0.06% # attempts to use FU when none available (Count)
system.cpu.statFuBusy::SimdShaSigma3                0      0.00%      0.06% # attempts to use FU when none available (Count)
system.cpu.statFuBusy::SimdPredAlu                  0      0.00%      0.06% # attempts to use FU when none available (Count)
system.cpu.statFuBusy::MemRead                  14404     33.04%     33.10% # attempts to use FU when none available (Count)
system.cpu.statFuBusy::MemWrite                 29065     66.66%     99.76% # attempts to use FU when none available (Count)
system.cpu.statFuBusy::FloatMemRead                32      0.07%     99.83% # attempts to use FU when none available (Count)
system.cpu.statFuBusy::FloatMemWrite               72      0.17%    100.00% # attempts to use FU when none available (Count)
system.cpu.statFuBusy::IprAccess                    0      0.00%    100.00% # attempts to use FU when none available (Count)
system.cpu.statFuBusy::InstPrefetch                 0      0.00%    100.00% # attempts to use FU when none available (Count)
system.cpu.statIssuedInstType_0::No_OpClass         2566      0.02%      0.02% # Number of instructions issued per FU type, per thread (Count)
system.cpu.statIssuedInstType_0::IntAlu       7421896     68.66%     68.68% # Number of instructions issued per FU type, per thread (Count)
system.cpu.statIssuedInstType_0::IntMult       300347      2.78%     71.46% # Number of instructions issued per FU type, per thread (Count)
system.cpu.statIssuedInstType_0::IntDiv          1715      0.02%     71.48% # Number of instructions issued per FU type, per thread (Count)
system.cpu.statIssuedInstType_0::FloatAdd          230      0.00%     71.48% # Number of instructions issued per FU type, per thread (Count)
system.cpu.statIssuedInstType_0::FloatCmp            0      0.00%     71.48% # Number of instructions issued per FU type, per thread (Count)
system.cpu.statIssuedInstType_0::FloatCvt           32      0.00%     71.48% # Number of instructions issued per FU type, per thread (Count)
system.cpu.statIssuedInstType_0::FloatMult            0      0.00%     71.48% # Number of instructions issued per FU type, per thread (Count)
system.cpu.statIssuedInstType_0::FloatMultAcc            0      0.00%     71.48% # Number of instructions issued per FU type, per thread (Count)
system.cpu.statIssuedInstType_0::FloatDiv            0      0.00%     71.48% # Number of instructions issued per FU type, per thread (Count)
system.cpu.statIssuedInstType_0::FloatMisc            0      0.00%     71.48% # Number of instructions issued per FU type, per thread (Count)
system.cpu.statIssuedInstType_0::FloatSqrt            0      0.00%     71.48% # Number of instructions issued per FU type, per thread (Count)
system.cpu.statIssuedInstType_0::SimdAdd          413      0.00%     71.49% # Number of instructions issued per FU type, per thread (Count)
system.cpu.statIssuedInstType_0::SimdAddAcc            0      0.00%     71.49% # Number of instructions issued per FU type, per thread (Count)
system.cpu.statIssuedInstType_0::SimdAlu          978      0.01%     71.49% # Number of instructions issued per FU type, per thread (Count)
system.cpu.statIssuedInstType_0::SimdCmp            0      0.00%     71.49% # Number of instructions issued per FU type, per thread (Count)
system.cpu.statIssuedInstType_0::SimdCvt         1191      0.01%     71.51% # Number of instructions issued per FU type, per thread (Count)
system.cpu.statIssuedInstType_0::SimdMisc          911      0.01%     71.51% # Number of instructions issued per FU type, per thread (Count)
system.cpu.statIssuedInstType_0::SimdMult            0      0.00%     71.51% # Number of instructions issued per FU type, per thread (Count)
system.cpu.statIssuedInstType_0::SimdMultAcc            0      0.00%     71.51% # Number of instructions issued per FU type, per thread (Count)
system.cpu.statIssuedInstType_0::SimdShift          356      0.00%     71.52% # Number of instructions issued per FU type, per thread (Count)
system.cpu.statIssuedInstType_0::SimdShiftAcc            0      0.00%     71.52% # Number of instructions issued per FU type, per thread (Count)
system.cpu.statIssuedInstType_0::SimdDiv            0      0.00%     71.52% # Number of instructions issued per FU type, per thread (Count)
system.cpu.statIssuedInstType_0::SimdSqrt            0      0.00%     71.52% # Number of instructions issued per FU type, per thread (Count)
system.cpu.statIssuedInstType_0::SimdFloatAdd            0      0.00%     71.52% # Number of instructions issued per FU type, per thread (Count)
system.cpu.statIssuedInstType_0::SimdFloatAlu            0      0.00%     71.52% # Number of instructions issued per FU type, per thread (Count)
system.cpu.statIssuedInstType_0::SimdFloatCmp            0      0.00%     71.52% # Number of instructions issued per FU type, per thread (Count)
system.cpu.statIssuedInstType_0::SimdFloatCvt            0      0.00%     71.52% # Number of instructions issued per FU type, per thread (Count)
system.cpu.statIssuedInstType_0::SimdFloatDiv            0      0.00%     71.52% # Number of instructions issued per FU type, per thread (Count)
system.cpu.statIssuedInstType_0::SimdFloatMisc            0      0.00%     71.52% # Number of instructions issued per FU type, per thread (Count)
system.cpu.statIssuedInstType_0::SimdFloatMult            0      0.00%     71.52% # Number of instructions issued per FU type, per thread (Count)
system.cpu.statIssuedInstType_0::SimdFloatMultAcc            0      0.00%     71.52% # Number of instructions issued per FU type, per thread (Count)
system.cpu.statIssuedInstType_0::SimdFloatSqrt            0      0.00%     71.52% # Number of instructions issued per FU type, per thread (Count)
system.cpu.statIssuedInstType_0::SimdReduceAdd            0      0.00%     71.52% # Number of instructions issued per FU type, per thread (Count)
system.cpu.statIssuedInstType_0::SimdReduceAlu            0      0.00%     71.52% # Number of instructions issued per FU type, per thread (Count)
system.cpu.statIssuedInstType_0::SimdReduceCmp            0      0.00%     71.52% # Number of instructions issued per FU type, per thread (Count)
system.cpu.statIssuedInstType_0::SimdFloatReduceAdd            0      0.00%     71.52% # Number of instructions issued per FU type, per thread (Count)
system.cpu.statIssuedInstType_0::SimdFloatReduceCmp            0      0.00%     71.52% # Number of instructions issued per FU type, per thread (Count)
system.cpu.statIssuedInstType_0::SimdAes            0      0.00%     71.52% # Number of instructions issued per FU type, per thread (Count)
system.cpu.statIssuedInstType_0::SimdAesMix            0      0.00%     71.52% # Number of instructions issued per FU type, per thread (Count)
system.cpu.statIssuedInstType_0::SimdSha1Hash            0      0.00%     71.52% # Number of instructions issued per FU type, per thread (Count)
system.cpu.statIssuedInstType_0::SimdSha1Hash2            0      0.00%     71.52% # Number of instructions issued per FU type, per thread (Count)
system.cpu.statIssuedInstType_0::SimdSha256Hash            0      0.00%     71.52% # Number of instructions issued per FU type, per thread (Count)
system.cpu.statIssuedInstType_0::SimdSha256Hash2            0      0.00%     71.52% # Number of instructions issued per FU type, per thread (Count)
system.cpu.statIssuedInstType_0::SimdShaSigma2            0      0.00%     71.52% # Number of instructions issued per FU type, per thread (Count)
system.cpu.statIssuedInstType_0::SimdShaSigma3            0      0.00%     71.52% # Number of instructions issued per FU type, per thread (Count)
system.cpu.statIssuedInstType_0::SimdPredAlu            0      0.00%     71.52% # Number of instructions issued per FU type, per thread (Count)
system.cpu.statIssuedInstType_0::MemRead      2258436     20.89%     92.41% # Number of instructions issued per FU type, per thread (Count)
system.cpu.statIssuedInstType_0::MemWrite       818264      7.57%     99.98% # Number of instructions issued per FU type, per thread (Count)
system.cpu.statIssuedInstType_0::FloatMemRead         1476      0.01%     99.99% # Number of instructions issued per FU type, per thread (Count)
system.cpu.statIssuedInstType_0::FloatMemWrite          670      0.01%    100.00% # Number of instructions issued per FU type, per thread (Count)
system.cpu.statIssuedInstType_0::IprAccess            0      0.00%    100.00% # Number of instructions issued per FU type, per thread (Count)
system.cpu.statIssuedInstType_0::InstPrefetch            0      0.00%    100.00% # Number of instructions issued per FU type, per thread (Count)
system.cpu.statIssuedInstType_0::total       10809481                       # Number of instructions issued per FU type, per thread (Count)
system.cpu.issueRate                         2.528040                       # Inst issue rate ((Count/Cycle))
system.cpu.fuBusy                               43600                       # FU busy when requested (Count)
system.cpu.fuBusyRate                        0.004033                       # FU busy rate (busy events/executed inst) ((Count/Count))
system.cpu.intInstQueueReads                 25712975                       # Number of integer instruction queue reads (Count)
system.cpu.intInstQueueWrites                11001757                       # Number of integer instruction queue writes (Count)
system.cpu.intInstQueueWakeupAccesses        10790975                       # Number of integer instruction queue wakeup accesses (Count)
system.cpu.fpInstQueueReads                     13027                       # Number of floating instruction queue reads (Count)
system.cpu.fpInstQueueWrites                     9497                       # Number of floating instruction queue writes (Count)
system.cpu.fpInstQueueWakeupAccesses             6112                       # Number of floating instruction queue wakeup accesses (Count)
system.cpu.vecInstQueueReads                        0                       # Number of vector instruction queue reads (Count)
system.cpu.vecInstQueueWrites                       0                       # Number of vector instruction queue writes (Count)
system.cpu.vecInstQueueWakeupAccesses               0                       # Number of vector instruction queue wakeup accesses (Count)
system.cpu.intAluAccesses                    10843953                       # Number of integer alu accesses (Count)
system.cpu.fpAluAccesses                         6562                       # Number of floating point alu accesses (Count)
system.cpu.vecAluAccesses                           0                       # Number of vector alu accesses (Count)
system.cpu.numInsts                          10801255                       # Number of executed instructions (Count)
system.cpu.numLoadInsts                       2257167                       # Number of load instructions executed (Count)
system.cpu.numSquashedInsts                      8223                       # Number of squashed instructions skipped in execute (Count)
system.cpu.numSwp                                   0                       # Number of swp insts executed (Count)
system.cpu.numNop                                   0                       # Number of nop insts executed (Count)
system.cpu.numRefs                            3075766                       # Number of memory reference insts executed (Count)
system.cpu.numBranches                         650962                       # Number of branches executed (Count)
system.cpu.numStoreInsts                       818599                       # Number of stores executed (Count)
system.cpu.numRate                           2.526116                       # Inst execution rate ((Count/Cycle))
system.cpu.timesIdled                            2432                       # Number of times that the entire CPU went into an idle state and unscheduled itself (Count)
system.cpu.idleCycles                          212489                       # Total number of cycles that the CPU has spent unscheduled due to idling (Cycle)
system.cpu.committedInsts                     6436803                       # Number of Instructions Simulated (Count)
system.cpu.committedOps                      10693060                       # Number of Ops (including micro ops) Simulated (Count)
system.cpu.cpi                               0.664279                       # CPI: Cycles Per Instruction ((Cycle/Count))
system.cpu.totalCpi                          0.664279                       # CPI: Total CPI of All Threads ((Cycle/Count))
system.cpu.ipc                               1.505391                       # IPC: Instructions Per Cycle ((Count/Cycle))
system.cpu.totalIpc                          1.505391                       # IPC: Total IPC of All Threads ((Count/Cycle))
system.cpu.intRegfileReads                   13662058                       # Number of integer regfile reads (Count)
system.cpu.intRegfileWrites                   8985133                       # Number of integer regfile writes (Count)
system.cpu.fpRegfileReads                        9611                       # Number of floating regfile reads (Count)
system.cpu.fpRegfileWrites                       4879                       # Number of floating regfile writes (Count)
system.cpu.ccRegfileReads                     2454669                       # number of cc regfile reads (Count)
system.cpu.ccRegfileWrites                    3068852                       # number of cc regfile writes (Count)
system.cpu.miscRegfileReads                   4835585                       # number of misc regfile reads (Count)
system.cpu.miscRegfileWrites                       18                       # number of misc regfile writes (Count)
system.cpu.MemDepUnit__0.insertedLoads        2263400                       # Number of loads inserted to the mem dependence unit. (Count)
system.cpu.MemDepUnit__0.insertedStores        820307                       # Number of stores inserted to the mem dependence unit. (Count)
system.cpu.MemDepUnit__0.conflictingLoads      1004296                       # Number of conflicting loads. (Count)
system.cpu.MemDepUnit__0.conflictingStores         8965                       # Number of conflicting stores. (Count)
system.cpu.MemDepUnit__1.insertedLoads              0                       # Number of loads inserted to the mem dependence unit. (Count)
system.cpu.MemDepUnit__1.insertedStores             0                       # Number of stores inserted to the mem dependence unit. (Count)
system.cpu.MemDepUnit__1.conflictingLoads            0                       # Number of conflicting loads. (Count)
system.cpu.MemDepUnit__1.conflictingStores            0                       # Number of conflicting stores. (Count)
system.cpu.MemDepUnit__2.insertedLoads              0                       # Number of loads inserted to the mem dependence unit. (Count)
system.cpu.MemDepUnit__2.insertedStores             0                       # Number of stores inserted to the mem dependence unit. (Count)
system.cpu.MemDepUnit__2.conflictingLoads            0                       # Number of conflicting loads. (Count)
system.cpu.MemDepUnit__2.conflictingStores            0                       # Number of conflicting stores. (Count)
system.cpu.MemDepUnit__3.insertedLoads              0                       # Number of loads inserted to the mem dependence unit. (Count)
system.cpu.MemDepUnit__3.insertedStores             0                       # Number of stores inserted to the mem dependence unit. (Count)
system.cpu.MemDepUnit__3.conflictingLoads            0                       # Number of conflicting loads. (Count)
system.cpu.MemDepUnit__3.conflictingStores            0                       # Number of conflicting stores. (Count)
system.cpu.branchPred.lookups                  674734                       # Number of BP lookups (Count)
system.cpu.branchPred.condPredicted            461208                       # Number of conditional branches predicted (Count)
system.cpu.branchPred.condIncorrect              5112                       # Number of conditional branches incorrect (Count)
system.cpu.branchPred.BTBLookups               479810                       # Number of BTB lookups (Count)
system.cpu.branchPred.BTBHits                  478908                       # Number of BTB hits (Count)
system.cpu.branchPred.BTBHitRatio            0.998120                       # BTB Hit Ratio (Ratio)
system.cpu.branchPred.RASUsed                  101950                       # Number of times the RAS was used to get a target. (Count)
system.cpu.branchPred.RASIncorrect                  7                       # Number of incorrect RAS predictions. (Count)
system.cpu.branchPred.indirectLookups             904                       # Number of indirect predictor lookups. (Count)
system.cpu.branchPred.indirectHits                280                       # Number of indirect target hits. (Count)
system.cpu.branchPred.indirectMisses              624                       # Number of indirect misses. (Count)
system.cpu.branchPred.indirectMispredicted          270                       # Number of mispredicted indirect branches. (Count)
system.cpu.branchPred.loop_predictor.correct       426089                       # Number of times the loop predictor is the provider and the prediction is correct (Count)
system.cpu.branchPred.loop_predictor.wrong         8964                       # Number of times the loop predictor is the provider and the prediction is wrong (Count)
system.cpu.branchPred.tage.longestMatchProviderCorrect       390297                       # Number of times TAGE Longest Match is the provider and the prediction is correct (Count)
system.cpu.branchPred.tage.altMatchProviderCorrect         1466                       # Number of times TAGE Alt Match is the provider and the prediction is correct (Count)
system.cpu.branchPred.tage.bimodalAltMatchProviderCorrect          376                       # Number of times TAGE Alt Match is the bimodal and it is the provider and the prediction is correct (Count)
system.cpu.branchPred.tage.bimodalProviderCorrect        39114                       # Number of times there are no hits on the TAGE tables and the bimodal prediction is correct (Count)
system.cpu.branchPred.tage.longestMatchProviderWrong         1862                       # Number of times TAGE Longest Match is the provider and the prediction is wrong (Count)
system.cpu.branchPred.tage.altMatchProviderWrong          789                       # Number of times TAGE Alt Match is the provider and the prediction is wrong (Count)
system.cpu.branchPred.tage.bimodalAltMatchProviderWrong          158                       # Number of times TAGE Alt Match is the bimodal and it is the provider and the prediction is wrong (Count)
system.cpu.branchPred.tage.bimodalProviderWrong          991                       # Number of times there are no hits on the TAGE tables and the bimodal prediction is wrong (Count)
system.cpu.branchPred.tage.altMatchProviderWouldHaveHit          421                       # Number of times TAGE Longest Match is the provider, the prediction is wrong and Alt Match prediction was correct (Count)
system.cpu.branchPred.tage.longestMatchProviderWouldHaveHit          556                       # Number of times TAGE Alt Match is the provider, the prediction is wrong and Longest Match prediction was correct (Count)
system.cpu.branchPred.tage.longestMatchProvider::0            0                       # TAGE provider for longest match (Count)
system.cpu.branchPred.tage.longestMatchProvider::1        25501                       # TAGE provider for longest match (Count)
system.cpu.branchPred.tage.longestMatchProvider::2         3649                       # TAGE provider for longest match (Count)
system.cpu.branchPred.tage.longestMatchProvider::3        10651                       # TAGE provider for longest match (Count)
system.cpu.branchPred.tage.longestMatchProvider::4        19574                       # TAGE provider for longest match (Count)
system.cpu.branchPred.tage.longestMatchProvider::5        29061                       # TAGE provider for longest match (Count)
system.cpu.branchPred.tage.longestMatchProvider::6        26418                       # TAGE provider for longest match (Count)
system.cpu.branchPred.tage.longestMatchProvider::7         4888                       # TAGE provider for longest match (Count)
system.cpu.branchPred.tage.longestMatchProvider::8        17554                       # TAGE provider for longest match (Count)
system.cpu.branchPred.tage.longestMatchProvider::9        16356                       # TAGE provider for longest match (Count)
system.cpu.branchPred.tage.longestMatchProvider::10        19616                       # TAGE provider for longest match (Count)
system.cpu.branchPred.tage.longestMatchProvider::11        30870                       # TAGE provider for longest match (Count)
system.cpu.branchPred.tage.longestMatchProvider::12       190276                       # TAGE provider for longest match (Count)
system.cpu.branchPred.tage.altMatchProvider::0        29230                       # TAGE provider for alt match (Count)
system.cpu.branchPred.tage.altMatchProvider::1        22537                       # TAGE provider for alt match (Count)
system.cpu.branchPred.tage.altMatchProvider::2         3888                       # TAGE provider for alt match (Count)
system.cpu.branchPred.tage.altMatchProvider::3        11867                       # TAGE provider for alt match (Count)
system.cpu.branchPred.tage.altMatchProvider::4        31979                       # TAGE provider for alt match (Count)
system.cpu.branchPred.tage.altMatchProvider::5        22299                       # TAGE provider for alt match (Count)
system.cpu.branchPred.tage.altMatchProvider::6        28962                       # TAGE provider for alt match (Count)
system.cpu.branchPred.tage.altMatchProvider::7         3554                       # TAGE provider for alt match (Count)
system.cpu.branchPred.tage.altMatchProvider::8         7516                       # TAGE provider for alt match (Count)
system.cpu.branchPred.tage.altMatchProvider::9        16559                       # TAGE provider for alt match (Count)
system.cpu.branchPred.tage.altMatchProvider::10        25796                       # TAGE provider for alt match (Count)
system.cpu.branchPred.tage.altMatchProvider::11       190227                       # TAGE provider for alt match (Count)
system.cpu.branchPred.tage.altMatchProvider::12            0                       # TAGE provider for alt match (Count)
system.cpu.commit.commitSquashedInsts          157119                       # The number of squashed insts skipped by commit (Count)
system.cpu.commit.commitNonSpecStalls              24                       # The number of times commit has been forced to stall to communicate backwards (Count)
system.cpu.commit.branchMispredicts              4799                       # The number of times a branch was mispredicted (Count)
system.cpu.commit.numCommittedDist::samples      4040105                       # Number of insts commited each cycle (Count)
system.cpu.commit.numCommittedDist::mean     2.646728                       # Number of insts commited each cycle (Count)
system.cpu.commit.numCommittedDist::stdev     3.021811                       # Number of insts commited each cycle (Count)
system.cpu.commit.numCommittedDist::underflows            0      0.00%      0.00% # Number of insts commited each cycle (Count)
system.cpu.commit.numCommittedDist::0         1296805     32.10%     32.10% # Number of insts commited each cycle (Count)
system.cpu.commit.numCommittedDist::1          743820     18.41%     50.51% # Number of insts commited each cycle (Count)
system.cpu.commit.numCommittedDist::2          613841     15.19%     65.70% # Number of insts commited each cycle (Count)
system.cpu.commit.numCommittedDist::3          414431     10.26%     75.96% # Number of insts commited each cycle (Count)
system.cpu.commit.numCommittedDist::4           29168      0.72%     76.68% # Number of insts commited each cycle (Count)
system.cpu.commit.numCommittedDist::5           17871      0.44%     77.13% # Number of insts commited each cycle (Count)
system.cpu.commit.numCommittedDist::6           10283      0.25%     77.38% # Number of insts commited each cycle (Count)
system.cpu.commit.numCommittedDist::7          100548      2.49%     79.87% # Number of insts commited each cycle (Count)
system.cpu.commit.numCommittedDist::8          813338     20.13%    100.00% # Number of insts commited each cycle (Count)
system.cpu.commit.numCommittedDist::overflows            0      0.00%    100.00% # Number of insts commited each cycle (Count)
system.cpu.commit.numCommittedDist::min_value            0                       # Number of insts commited each cycle (Count)
system.cpu.commit.numCommittedDist::max_value            8                       # Number of insts commited each cycle (Count)
system.cpu.commit.numCommittedDist::total      4040105                       # Number of insts commited each cycle (Count)
system.cpu.commit.instsCommitted              6436803                       # Number of instructions committed (Count)
system.cpu.commit.opsCommitted               10693060                       # Number of ops (including micro ops) committed (Count)
system.cpu.commit.memRefs                     3058103                       # Number of memory references committed (Count)
system.cpu.commit.loads                       2243371                       # Number of loads committed (Count)
system.cpu.commit.amos                              0                       # Number of atomic instructions committed (Count)
system.cpu.commit.membars                           4                       # Number of memory barriers committed (Count)
system.cpu.commit.branches                     641846                       # Number of branches committed (Count)
system.cpu.commit.vectorInstructions                0                       # Number of committed Vector instructions. (Count)
system.cpu.commit.floating                       4869                       # Number of committed floating point instructions. (Count)
system.cpu.commit.integer                    10687938                       # Number of committed integer instructions. (Count)
system.cpu.commit.functionCalls                101100                       # Number of function calls committed. (Count)
system.cpu.commit.committedInstType_0::No_OpClass         1320      0.01%      0.01% # Class of committed instruction (Count)
system.cpu.commit.committedInstType_0::IntAlu      7328876     68.54%     68.55% # Class of committed instruction (Count)
system.cpu.commit.committedInstType_0::IntMult       300075      2.81%     71.36% # Class of committed instruction (Count)
system.cpu.commit.committedInstType_0::IntDiv         1538      0.01%     71.37% # Class of committed instruction (Count)
system.cpu.commit.committedInstType_0::FloatAdd           72      0.00%     71.37% # Class of committed instruction (Count)
system.cpu.commit.committedInstType_0::FloatCmp            0      0.00%     71.37% # Class of committed instruction (Count)
system.cpu.commit.committedInstType_0::FloatCvt           32      0.00%     71.37% # Class of committed instruction (Count)
system.cpu.commit.committedInstType_0::FloatMult            0      0.00%     71.37% # Class of committed instruction (Count)
system.cpu.commit.committedInstType_0::FloatMultAcc            0      0.00%     71.37% # Class of committed instruction (Count)
system.cpu.commit.committedInstType_0::FloatDiv            0      0.00%     71.37% # Class of committed instruction (Count)
system.cpu.commit.committedInstType_0::FloatMisc            0      0.00%     71.37% # Class of committed instruction (Count)
system.cpu.commit.committedInstType_0::FloatSqrt            0      0.00%     71.37% # Class of committed instruction (Count)
system.cpu.commit.committedInstType_0::SimdAdd          356      0.00%     71.38% # Class of committed instruction (Count)
system.cpu.commit.committedInstType_0::SimdAddAcc            0      0.00%     71.38% # Class of committed instruction (Count)
system.cpu.commit.committedInstType_0::SimdAlu          755      0.01%     71.38% # Class of committed instruction (Count)
system.cpu.commit.committedInstType_0::SimdCmp            0      0.00%     71.38% # Class of committed instruction (Count)
system.cpu.commit.committedInstType_0::SimdCvt          982      0.01%     71.39% # Class of committed instruction (Count)
system.cpu.commit.committedInstType_0::SimdMisc          801      0.01%     71.40% # Class of committed instruction (Count)
system.cpu.commit.committedInstType_0::SimdMult            0      0.00%     71.40% # Class of committed instruction (Count)
system.cpu.commit.committedInstType_0::SimdMultAcc            0      0.00%     71.40% # Class of committed instruction (Count)
system.cpu.commit.committedInstType_0::SimdShift          150      0.00%     71.40% # Class of committed instruction (Count)
system.cpu.commit.committedInstType_0::SimdShiftAcc            0      0.00%     71.40% # Class of committed instruction (Count)
system.cpu.commit.committedInstType_0::SimdDiv            0      0.00%     71.40% # Class of committed instruction (Count)
system.cpu.commit.committedInstType_0::SimdSqrt            0      0.00%     71.40% # Class of committed instruction (Count)
system.cpu.commit.committedInstType_0::SimdFloatAdd            0      0.00%     71.40% # Class of committed instruction (Count)
system.cpu.commit.committedInstType_0::SimdFloatAlu            0      0.00%     71.40% # Class of committed instruction (Count)
system.cpu.commit.committedInstType_0::SimdFloatCmp            0      0.00%     71.40% # Class of committed instruction (Count)
system.cpu.commit.committedInstType_0::SimdFloatCvt            0      0.00%     71.40% # Class of committed instruction (Count)
system.cpu.commit.committedInstType_0::SimdFloatDiv            0      0.00%     71.40% # Class of committed instruction (Count)
system.cpu.commit.committedInstType_0::SimdFloatMisc            0      0.00%     71.40% # Class of committed instruction (Count)
system.cpu.commit.committedInstType_0::SimdFloatMult            0      0.00%     71.40% # Class of committed instruction (Count)
system.cpu.commit.committedInstType_0::SimdFloatMultAcc            0      0.00%     71.40% # Class of committed instruction (Count)
system.cpu.commit.committedInstType_0::SimdFloatSqrt            0      0.00%     71.40% # Class of committed instruction (Count)
system.cpu.commit.committedInstType_0::SimdReduceAdd            0      0.00%     71.40% # Class of committed instruction (Count)
system.cpu.commit.committedInstType_0::SimdReduceAlu            0      0.00%     71.40% # Class of committed instruction (Count)
system.cpu.commit.committedInstType_0::SimdReduceCmp            0      0.00%     71.40% # Class of committed instruction (Count)
system.cpu.commit.committedInstType_0::SimdFloatReduceAdd            0      0.00%     71.40% # Class of committed instruction (Count)
system.cpu.commit.committedInstType_0::SimdFloatReduceCmp            0      0.00%     71.40% # Class of committed instruction (Count)
system.cpu.commit.committedInstType_0::SimdAes            0      0.00%     71.40% # Class of committed instruction (Count)
system.cpu.commit.committedInstType_0::SimdAesMix            0      0.00%     71.40% # Class of committed instruction (Count)
system.cpu.commit.committedInstType_0::SimdSha1Hash            0      0.00%     71.40% # Class of committed instruction (Count)
system.cpu.commit.committedInstType_0::SimdSha1Hash2            0      0.00%     71.40% # Class of committed instruction (Count)
system.cpu.commit.committedInstType_0::SimdSha256Hash            0      0.00%     71.40% # Class of committed instruction (Count)
system.cpu.commit.committedInstType_0::SimdSha256Hash2            0      0.00%     71.40% # Class of committed instruction (Count)
system.cpu.commit.committedInstType_0::SimdShaSigma2            0      0.00%     71.40% # Class of committed instruction (Count)
system.cpu.commit.committedInstType_0::SimdShaSigma3            0      0.00%     71.40% # Class of committed instruction (Count)
system.cpu.commit.committedInstType_0::SimdPredAlu            0      0.00%     71.40% # Class of committed instruction (Count)
system.cpu.commit.committedInstType_0::MemRead      2242277     20.97%     92.37% # Class of committed instruction (Count)
system.cpu.commit.committedInstType_0::MemWrite       814248      7.61%     99.99% # Class of committed instruction (Count)
system.cpu.commit.committedInstType_0::FloatMemRead         1094      0.01%    100.00% # Class of committed instruction (Count)
system.cpu.commit.committedInstType_0::FloatMemWrite          484      0.00%    100.00% # Class of committed instruction (Count)
system.cpu.commit.committedInstType_0::IprAccess            0      0.00%    100.00% # Class of committed instruction (Count)
system.cpu.commit.committedInstType_0::InstPrefetch            0      0.00%    100.00% # Class of committed instruction (Count)
system.cpu.commit.committedInstType_0::total     10693060                       # Class of committed instruction (Count)
system.cpu.commit.commitEligibleSamples        813338                       # number cycles where commit BW limit reached (Cycle)
system.cpu.dcache.demandHits::cpu.data        1469594                       # number of demand (read+write) hits (Count)
system.cpu.dcache.demandHits::total           1469594                       # number of demand (read+write) hits (Count)
system.cpu.dcache.overallHits::cpu.data       1469594                       # number of overall hits (Count)
system.cpu.dcache.overallHits::total          1469594                       # number of overall hits (Count)
system.cpu.dcache.demandMisses::cpu.data        32380                       # number of demand (read+write) misses (Count)
system.cpu.dcache.demandMisses::total           32380                       # number of demand (read+write) misses (Count)
system.cpu.dcache.overallMisses::cpu.data        32380                       # number of overall misses (Count)
system.cpu.dcache.overallMisses::total          32380                       # number of overall misses (Count)
system.cpu.dcache.demandMissLatency::cpu.data   2024559500                       # number of demand (read+write) miss ticks (Tick)
system.cpu.dcache.demandMissLatency::total   2024559500                       # number of demand (read+write) miss ticks (Tick)
system.cpu.dcache.overallMissLatency::cpu.data   2024559500                       # number of overall miss ticks (Tick)
system.cpu.dcache.overallMissLatency::total   2024559500                       # number of overall miss ticks (Tick)
system.cpu.dcache.demandAccesses::cpu.data      1501974                       # number of demand (read+write) accesses (Count)
system.cpu.dcache.demandAccesses::total       1501974                       # number of demand (read+write) accesses (Count)
system.cpu.dcache.overallAccesses::cpu.data      1501974                       # number of overall (read+write) accesses (Count)
system.cpu.dcache.overallAccesses::total      1501974                       # number of overall (read+write) accesses (Count)
system.cpu.dcache.demandMissRate::cpu.data     0.021558                       # miss rate for demand accesses (Ratio)
system.cpu.dcache.demandMissRate::total      0.021558                       # miss rate for demand accesses (Ratio)
system.cpu.dcache.overallMissRate::cpu.data     0.021558                       # miss rate for overall accesses (Ratio)
system.cpu.dcache.overallMissRate::total     0.021558                       # miss rate for overall accesses (Ratio)
system.cpu.dcache.demandAvgMissLatency::cpu.data        62525                       # average overall miss latency in ticks ((Tick/Count))
system.cpu.dcache.demandAvgMissLatency::total        62525                       # average overall miss latency in ticks ((Tick/Count))
system.cpu.dcache.overallAvgMissLatency::cpu.data        62525                       # average overall miss latency ((Tick/Count))
system.cpu.dcache.overallAvgMissLatency::total        62525                       # average overall miss latency ((Tick/Count))
system.cpu.dcache.blockedCycles::no_mshrs         3956                       # number of cycles access was blocked (Cycle)
system.cpu.dcache.blockedCycles::no_targets            0                       # number of cycles access was blocked (Cycle)
system.cpu.dcache.blockedCauses::no_mshrs          121                       # number of times access was blocked (Count)
system.cpu.dcache.blockedCauses::no_targets            0                       # number of times access was blocked (Count)
system.cpu.dcache.avgBlocked::no_mshrs      32.694215                       # average number of cycles each access was blocked ((Cycle/Count))
system.cpu.dcache.avgBlocked::no_targets          nan                       # average number of cycles each access was blocked ((Cycle/Count))
system.cpu.dcache.writebacks::writebacks        10849                       # number of writebacks (Count)
system.cpu.dcache.writebacks::total             10849                       # number of writebacks (Count)
system.cpu.dcache.demandMshrHits::cpu.data        17682                       # number of demand (read+write) MSHR hits (Count)
system.cpu.dcache.demandMshrHits::total         17682                       # number of demand (read+write) MSHR hits (Count)
system.cpu.dcache.overallMshrHits::cpu.data        17682                       # number of overall MSHR hits (Count)
system.cpu.dcache.overallMshrHits::total        17682                       # number of overall MSHR hits (Count)
system.cpu.dcache.demandMshrMisses::cpu.data        14698                       # number of demand (read+write) MSHR misses (Count)
system.cpu.dcache.demandMshrMisses::total        14698                       # number of demand (read+write) MSHR misses (Count)
system.cpu.dcache.overallMshrMisses::cpu.data        14698                       # number of overall MSHR misses (Count)
system.cpu.dcache.overallMshrMisses::total        14698                       # number of overall MSHR misses (Count)
system.cpu.dcache.demandMshrMissLatency::cpu.data    846933000                       # number of demand (read+write) MSHR miss ticks (Tick)
system.cpu.dcache.demandMshrMissLatency::total    846933000                       # number of demand (read+write) MSHR miss ticks (Tick)
system.cpu.dcache.overallMshrMissLatency::cpu.data    846933000                       # number of overall MSHR miss ticks (Tick)
system.cpu.dcache.overallMshrMissLatency::total    846933000                       # number of overall MSHR miss ticks (Tick)
system.cpu.dcache.demandMshrMissRate::cpu.data     0.009786                       # mshr miss ratio for demand accesses (Ratio)
system.cpu.dcache.demandMshrMissRate::total     0.009786                       # mshr miss ratio for demand accesses (Ratio)
system.cpu.dcache.overallMshrMissRate::cpu.data     0.009786                       # mshr miss ratio for overall accesses (Ratio)
system.cpu.dcache.overallMshrMissRate::total     0.009786                       # mshr miss ratio for overall accesses (Ratio)
system.cpu.dcache.demandAvgMshrMissLatency::cpu.data 57622.329569                       # average overall mshr miss latency ((Tick/Count))
system.cpu.dcache.demandAvgMshrMissLatency::total 57622.329569                       # average overall mshr miss latency ((Tick/Count))
system.cpu.dcache.overallAvgMshrMissLatency::cpu.data 57622.329569                       # average overall mshr miss latency ((Tick/Count))
system.cpu.dcache.overallAvgMshrMissLatency::total 57622.329569                       # average overall mshr miss latency ((Tick/Count))
system.cpu.dcache.replacements                  14632                       # number of replacements (Count)
system.cpu.dcache.LockedRMWReadReq.hits::cpu.data            2                       # number of LockedRMWReadReq hits (Count)
system.cpu.dcache.LockedRMWReadReq.hits::total            2                       # number of LockedRMWReadReq hits (Count)
system.cpu.dcache.LockedRMWReadReq.accesses::cpu.data            2                       # number of LockedRMWReadReq accesses(hits+misses) (Count)
system.cpu.dcache.LockedRMWReadReq.accesses::total            2                       # number of LockedRMWReadReq accesses(hits+misses) (Count)
system.cpu.dcache.LockedRMWReadReq.mshrMissLatency::cpu.data         8000                       # number of LockedRMWReadReq MSHR miss ticks (Tick)
system.cpu.dcache.LockedRMWReadReq.mshrMissLatency::total         8000                       # number of LockedRMWReadReq MSHR miss ticks (Tick)
system.cpu.dcache.LockedRMWReadReq.avgMshrMissLatency::cpu.data          inf                       # average LockedRMWReadReq mshr miss latency ((Tick/Count))
system.cpu.dcache.LockedRMWReadReq.avgMshrMissLatency::total          inf                       # average LockedRMWReadReq mshr miss latency ((Tick/Count))
system.cpu.dcache.LockedRMWWriteReq.hits::cpu.data            2                       # number of LockedRMWWriteReq hits (Count)
system.cpu.dcache.LockedRMWWriteReq.hits::total            2                       # number of LockedRMWWriteReq hits (Count)
system.cpu.dcache.LockedRMWWriteReq.accesses::cpu.data            2                       # number of LockedRMWWriteReq accesses(hits+misses) (Count)
system.cpu.dcache.LockedRMWWriteReq.accesses::total            2                       # number of LockedRMWWriteReq accesses(hits+misses) (Count)
system.cpu.dcache.ReadReq.hits::cpu.data       662087                       # number of ReadReq hits (Count)
system.cpu.dcache.ReadReq.hits::total          662087                       # number of ReadReq hits (Count)
system.cpu.dcache.ReadReq.misses::cpu.data        25154                       # number of ReadReq misses (Count)
system.cpu.dcache.ReadReq.misses::total         25154                       # number of ReadReq misses (Count)
system.cpu.dcache.ReadReq.missLatency::cpu.data   1647811500                       # number of ReadReq miss ticks (Tick)
system.cpu.dcache.ReadReq.missLatency::total   1647811500                       # number of ReadReq miss ticks (Tick)
system.cpu.dcache.ReadReq.accesses::cpu.data       687241                       # number of ReadReq accesses(hits+misses) (Count)
system.cpu.dcache.ReadReq.accesses::total       687241                       # number of ReadReq accesses(hits+misses) (Count)
system.cpu.dcache.ReadReq.missRate::cpu.data     0.036601                       # miss rate for ReadReq accesses (Ratio)
system.cpu.dcache.ReadReq.missRate::total     0.036601                       # miss rate for ReadReq accesses (Ratio)
system.cpu.dcache.ReadReq.avgMissLatency::cpu.data 65508.925022                       # average ReadReq miss latency ((Tick/Count))
system.cpu.dcache.ReadReq.avgMissLatency::total 65508.925022                       # average ReadReq miss latency ((Tick/Count))
system.cpu.dcache.ReadReq.mshrHits::cpu.data        17675                       # number of ReadReq MSHR hits (Count)
system.cpu.dcache.ReadReq.mshrHits::total        17675                       # number of ReadReq MSHR hits (Count)
system.cpu.dcache.ReadReq.mshrMisses::cpu.data         7479                       # number of ReadReq MSHR misses (Count)
system.cpu.dcache.ReadReq.mshrMisses::total         7479                       # number of ReadReq MSHR misses (Count)
system.cpu.dcache.ReadReq.mshrMissLatency::cpu.data    477623000                       # number of ReadReq MSHR miss ticks (Tick)
system.cpu.dcache.ReadReq.mshrMissLatency::total    477623000                       # number of ReadReq MSHR miss ticks (Tick)
system.cpu.dcache.ReadReq.mshrMissRate::cpu.data     0.010883                       # mshr miss rate for ReadReq accesses (Ratio)
system.cpu.dcache.ReadReq.mshrMissRate::total     0.010883                       # mshr miss rate for ReadReq accesses (Ratio)
system.cpu.dcache.ReadReq.avgMshrMissLatency::cpu.data 63861.879930                       # average ReadReq mshr miss latency ((Tick/Count))
system.cpu.dcache.ReadReq.avgMshrMissLatency::total 63861.879930                       # average ReadReq mshr miss latency ((Tick/Count))
system.cpu.dcache.WriteReq.hits::cpu.data       807507                       # number of WriteReq hits (Count)
system.cpu.dcache.WriteReq.hits::total         807507                       # number of WriteReq hits (Count)
system.cpu.dcache.WriteReq.misses::cpu.data         7226                       # number of WriteReq misses (Count)
system.cpu.dcache.WriteReq.misses::total         7226                       # number of WriteReq misses (Count)
system.cpu.dcache.WriteReq.missLatency::cpu.data    376748000                       # number of WriteReq miss ticks (Tick)
system.cpu.dcache.WriteReq.missLatency::total    376748000                       # number of WriteReq miss ticks (Tick)
system.cpu.dcache.WriteReq.accesses::cpu.data       814733                       # number of WriteReq accesses(hits+misses) (Count)
system.cpu.dcache.WriteReq.accesses::total       814733                       # number of WriteReq accesses(hits+misses) (Count)
system.cpu.dcache.WriteReq.missRate::cpu.data     0.008869                       # miss rate for WriteReq accesses (Ratio)
system.cpu.dcache.WriteReq.missRate::total     0.008869                       # miss rate for WriteReq accesses (Ratio)
system.cpu.dcache.WriteReq.avgMissLatency::cpu.data 52137.835594                       # average WriteReq miss latency ((Tick/Count))
system.cpu.dcache.WriteReq.avgMissLatency::total 52137.835594                       # average WriteReq miss latency ((Tick/Count))
system.cpu.dcache.WriteReq.mshrHits::cpu.data            7                       # number of WriteReq MSHR hits (Count)
system.cpu.dcache.WriteReq.mshrHits::total            7                       # number of WriteReq MSHR hits (Count)
system.cpu.dcache.WriteReq.mshrMisses::cpu.data         7219                       # number of WriteReq MSHR misses (Count)
system.cpu.dcache.WriteReq.mshrMisses::total         7219                       # number of WriteReq MSHR misses (Count)
system.cpu.dcache.WriteReq.mshrMissLatency::cpu.data    369310000                       # number of WriteReq MSHR miss ticks (Tick)
system.cpu.dcache.WriteReq.mshrMissLatency::total    369310000                       # number of WriteReq MSHR miss ticks (Tick)
system.cpu.dcache.WriteReq.mshrMissRate::cpu.data     0.008861                       # mshr miss rate for WriteReq accesses (Ratio)
system.cpu.dcache.WriteReq.mshrMissRate::total     0.008861                       # mshr miss rate for WriteReq accesses (Ratio)
system.cpu.dcache.WriteReq.avgMshrMissLatency::cpu.data 51158.055132                       # average WriteReq mshr miss latency ((Tick/Count))
system.cpu.dcache.WriteReq.avgMshrMissLatency::total 51158.055132                       # average WriteReq mshr miss latency ((Tick/Count))
system.cpu.dcache.power_state.pwrStateResidencyTicks::UNDEFINED   2137917000                       # Cumulative time (in ticks) in various power states (Tick)
system.cpu.dcache.tags.tagsInUse            63.936211                       # Average ticks per tags in use ((Tick/Count))
system.cpu.dcache.tags.totalRefs              1484296                       # Total number of references to valid blocks. (Count)
system.cpu.dcache.tags.sampledRefs              14696                       # Sample count of references to valid blocks. (Count)
system.cpu.dcache.tags.avgRefs                    101                       # Average number of references to valid blocks. ((Count/Count))
system.cpu.dcache.tags.warmupTick             8497000                       # The tick when the warmup percentage was hit. (Tick)
system.cpu.dcache.tags.occupancies::cpu.data    63.936211                       # Average occupied blocks per tick, per requestor ((Count/Tick))
system.cpu.dcache.tags.avgOccs::cpu.data     0.999003                       # Average percentage of cache occupancy ((Ratio/Tick))
system.cpu.dcache.tags.avgOccs::total        0.999003                       # Average percentage of cache occupancy ((Ratio/Tick))
system.cpu.dcache.tags.occupanciesTaskId::1024           64                       # Occupied blocks per task id (Count)
system.cpu.dcache.tags.ageTaskId_1024::0           47                       # Occupied blocks per task id, per block age (Count)
system.cpu.dcache.tags.ageTaskId_1024::1           17                       # Occupied blocks per task id, per block age (Count)
system.cpu.dcache.tags.ratioOccsTaskId::1024            1                       # Ratio of occupied blocks and all blocks, per task id (Ratio)
system.cpu.dcache.tags.tagAccesses            3018652                       # Number of tag accesses (Count)
system.cpu.dcache.tags.dataAccesses           3018652                       # Number of data accesses (Count)
system.cpu.dcache.tags.power_state.pwrStateResidencyTicks::UNDEFINED   2137917000                       # Cumulative time (in ticks) in various power states (Tick)
system.cpu.decode.idleCycles                   398629                       # Number of cycles decode is idle (Cycle)
system.cpu.decode.blockedCycles               2194078                       # Number of cycles decode is blocked (Cycle)
system.cpu.decode.runCycles                    892966                       # Number of cycles decode is running (Cycle)
system.cpu.decode.unblockCycles                572589                       # Number of cycles decode is unblocking (Cycle)
system.cpu.decode.squashCycles                   5084                       # Number of cycles decode is squashing (Cycle)
system.cpu.decode.branchResolved               475176                       # Number of times decode resolved a branch (Count)
system.cpu.decode.branchMispred                   631                       # Number of times decode detected a branch misprediction (Count)
system.cpu.decode.decodedInsts               10890961                       # Number of instructions handled by decode (Count)
system.cpu.decode.squashedInsts                  3051                       # Number of squashed instructions handled by decode (Count)
system.cpu.fetch.icacheStallCycles            1001263                       # Number of cycles fetch is stalled on an Icache miss (Cycle)
system.cpu.fetch.insts                        6591310                       # Number of instructions fetch has processed (Count)
system.cpu.fetch.branches                      674734                       # Number of branches that fetch encountered (Count)
system.cpu.fetch.predictedBranches             581138                       # Number of branches that fetch has predicted taken (Count)
system.cpu.fetch.cycles                       3053208                       # Number of cycles fetch has run and was not squashing or blocked (Cycle)
system.cpu.fetch.squashCycles                   11420                       # Number of cycles fetch has spent squashing (Cycle)
system.cpu.fetch.miscStallCycles                  353                       # Number of cycles fetch has spent waiting on interrupts, or bad addresses, or out of MSHRs (Cycle)
system.cpu.fetch.pendingTrapStallCycles          2775                       # Number of stall cycles due to pending traps (Cycle)
system.cpu.fetch.icacheWaitRetryStallCycles           37                       # Number of stall cycles due to full MSHR (Cycle)
system.cpu.fetch.cacheLines                    893562                       # Number of cache lines fetched (Count)
system.cpu.fetch.icacheSquashes                  2105                       # Number of outstanding Icache misses that were squashed (Count)
system.cpu.fetch.nisnDist::samples            4063346                       # Number of instructions fetched each cycle (Total) (Count)
system.cpu.fetch.nisnDist::mean              2.700311                       # Number of instructions fetched each cycle (Total) (Count)
system.cpu.fetch.nisnDist::stdev             3.411729                       # Number of instructions fetched each cycle (Total) (Count)
system.cpu.fetch.nisnDist::underflows               0      0.00%      0.00% # Number of instructions fetched each cycle (Total) (Count)
system.cpu.fetch.nisnDist::0                  2177183     53.58%     53.58% # Number of instructions fetched each cycle (Total) (Count)
system.cpu.fetch.nisnDist::1                   286513      7.05%     60.63% # Number of instructions fetched each cycle (Total) (Count)
system.cpu.fetch.nisnDist::2                    88124      2.17%     62.80% # Number of instructions fetched each cycle (Total) (Count)
system.cpu.fetch.nisnDist::3                    78502      1.93%     64.73% # Number of instructions fetched each cycle (Total) (Count)
system.cpu.fetch.nisnDist::4                    13916      0.34%     65.08% # Number of instructions fetched each cycle (Total) (Count)
system.cpu.fetch.nisnDist::5                   205777      5.06%     70.14% # Number of instructions fetched each cycle (Total) (Count)
system.cpu.fetch.nisnDist::6                   158615      3.90%     74.04% # Number of instructions fetched each cycle (Total) (Count)
system.cpu.fetch.nisnDist::7                   199937      4.92%     78.96% # Number of instructions fetched each cycle (Total) (Count)
system.cpu.fetch.nisnDist::8                   854779     21.04%    100.00% # Number of instructions fetched each cycle (Total) (Count)
system.cpu.fetch.nisnDist::overflows                0      0.00%    100.00% # Number of instructions fetched each cycle (Total) (Count)
system.cpu.fetch.nisnDist::min_value                0                       # Number of instructions fetched each cycle (Total) (Count)
system.cpu.fetch.nisnDist::max_value                8                       # Number of instructions fetched each cycle (Total) (Count)
system.cpu.fetch.nisnDist::total              4063346                       # Number of instructions fetched each cycle (Total) (Count)
system.cpu.fetch.branchRate                  0.157802                       # Number of branch fetches per cycle (Ratio)
system.cpu.fetch.rate                        1.541526                       # Number of inst fetches per cycle ((Count/Cycle))
system.cpu.icache.demandHits::cpu.inst         889655                       # number of demand (read+write) hits (Count)
system.cpu.icache.demandHits::total            889655                       # number of demand (read+write) hits (Count)
system.cpu.icache.overallHits::cpu.inst        889655                       # number of overall hits (Count)
system.cpu.icache.overallHits::total           889655                       # number of overall hits (Count)
system.cpu.icache.demandMisses::cpu.inst         3907                       # number of demand (read+write) misses (Count)
system.cpu.icache.demandMisses::total            3907                       # number of demand (read+write) misses (Count)
system.cpu.icache.overallMisses::cpu.inst         3907                       # number of overall misses (Count)
system.cpu.icache.overallMisses::total           3907                       # number of overall misses (Count)
system.cpu.icache.demandMissLatency::cpu.inst    231873998                       # number of demand (read+write) miss ticks (Tick)
system.cpu.icache.demandMissLatency::total    231873998                       # number of demand (read+write) miss ticks (Tick)
system.cpu.icache.overallMissLatency::cpu.inst    231873998                       # number of overall miss ticks (Tick)
system.cpu.icache.overallMissLatency::total    231873998                       # number of overall miss ticks (Tick)
system.cpu.icache.demandAccesses::cpu.inst       893562                       # number of demand (read+write) accesses (Count)
system.cpu.icache.demandAccesses::total        893562                       # number of demand (read+write) accesses (Count)
system.cpu.icache.overallAccesses::cpu.inst       893562                       # number of overall (read+write) accesses (Count)
system.cpu.icache.overallAccesses::total       893562                       # number of overall (read+write) accesses (Count)
system.cpu.icache.demandMissRate::cpu.inst     0.004372                       # miss rate for demand accesses (Ratio)
system.cpu.icache.demandMissRate::total      0.004372                       # miss rate for demand accesses (Ratio)
system.cpu.icache.overallMissRate::cpu.inst     0.004372                       # miss rate for overall accesses (Ratio)
system.cpu.icache.overallMissRate::total     0.004372                       # miss rate for overall accesses (Ratio)
system.cpu.icache.demandAvgMissLatency::cpu.inst 59348.348605                       # average overall miss latency in ticks ((Tick/Count))
system.cpu.icache.demandAvgMissLatency::total 59348.348605                       # average overall miss latency in ticks ((Tick/Count))
system.cpu.icache.overallAvgMissLatency::cpu.inst 59348.348605                       # average overall miss latency ((Tick/Count))
system.cpu.icache.overallAvgMissLatency::total 59348.348605                       # average overall miss latency ((Tick/Count))
system.cpu.icache.blockedCycles::no_mshrs          450                       # number of cycles access was blocked (Cycle)
system.cpu.icache.blockedCycles::no_targets            0                       # number of cycles access was blocked (Cycle)
system.cpu.icache.blockedCauses::no_mshrs           12                       # number of times access was blocked (Count)
system.cpu.icache.blockedCauses::no_targets            0                       # number of times access was blocked (Count)
system.cpu.icache.avgBlocked::no_mshrs      37.500000                       # average number of cycles each access was blocked ((Cycle/Count))
system.cpu.icache.avgBlocked::no_targets          nan                       # average number of cycles each access was blocked ((Cycle/Count))
system.cpu.icache.writebacks::writebacks            1                       # number of writebacks (Count)
system.cpu.icache.writebacks::total                 1                       # number of writebacks (Count)
system.cpu.icache.demandMshrHits::cpu.inst          587                       # number of demand (read+write) MSHR hits (Count)
system.cpu.icache.demandMshrHits::total           587                       # number of demand (read+write) MSHR hits (Count)
system.cpu.icache.overallMshrHits::cpu.inst          587                       # number of overall MSHR hits (Count)
system.cpu.icache.overallMshrHits::total          587                       # number of overall MSHR hits (Count)
system.cpu.icache.demandMshrMisses::cpu.inst         3320                       # number of demand (read+write) MSHR misses (Count)
system.cpu.icache.demandMshrMisses::total         3320                       # number of demand (read+write) MSHR misses (Count)
system.cpu.icache.overallMshrMisses::cpu.inst         3320                       # number of overall MSHR misses (Count)
system.cpu.icache.overallMshrMisses::total         3320                       # number of overall MSHR misses (Count)
system.cpu.icache.demandMshrMissLatency::cpu.inst    197101499                       # number of demand (read+write) MSHR miss ticks (Tick)
system.cpu.icache.demandMshrMissLatency::total    197101499                       # number of demand (read+write) MSHR miss ticks (Tick)
system.cpu.icache.overallMshrMissLatency::cpu.inst    197101499                       # number of overall MSHR miss ticks (Tick)
system.cpu.icache.overallMshrMissLatency::total    197101499                       # number of overall MSHR miss ticks (Tick)
system.cpu.icache.demandMshrMissRate::cpu.inst     0.003715                       # mshr miss ratio for demand accesses (Ratio)
system.cpu.icache.demandMshrMissRate::total     0.003715                       # mshr miss ratio for demand accesses (Ratio)
system.cpu.icache.overallMshrMissRate::cpu.inst     0.003715                       # mshr miss ratio for overall accesses (Ratio)
system.cpu.icache.overallMshrMissRate::total     0.003715                       # mshr miss ratio for overall accesses (Ratio)
system.cpu.icache.demandAvgMshrMissLatency::cpu.inst 59367.921386                       # average overall mshr miss latency ((Tick/Count))
system.cpu.icache.demandAvgMshrMissLatency::total 59367.921386                       # average overall mshr miss latency ((Tick/Count))
system.cpu.icache.overallAvgMshrMissLatency::cpu.inst 59367.921386                       # average overall mshr miss latency ((Tick/Count))
system.cpu.icache.overallAvgMshrMissLatency::total 59367.921386                       # average overall mshr miss latency ((Tick/Count))
system.cpu.icache.replacements                   3253                       # number of replacements (Count)
system.cpu.icache.ReadReq.hits::cpu.inst       889655                       # number of ReadReq hits (Count)
system.cpu.icache.ReadReq.hits::total          889655                       # number of ReadReq hits (Count)
system.cpu.icache.ReadReq.misses::cpu.inst         3907                       # number of ReadReq misses (Count)
system.cpu.icache.ReadReq.misses::total          3907                       # number of ReadReq misses (Count)
system.cpu.icache.ReadReq.missLatency::cpu.inst    231873998                       # number of ReadReq miss ticks (Tick)
system.cpu.icache.ReadReq.missLatency::total    231873998                       # number of ReadReq miss ticks (Tick)
system.cpu.icache.ReadReq.accesses::cpu.inst       893562                       # number of ReadReq accesses(hits+misses) (Count)
system.cpu.icache.ReadReq.accesses::total       893562                       # number of ReadReq accesses(hits+misses) (Count)
system.cpu.icache.ReadReq.missRate::cpu.inst     0.004372                       # miss rate for ReadReq accesses (Ratio)
system.cpu.icache.ReadReq.missRate::total     0.004372                       # miss rate for ReadReq accesses (Ratio)
system.cpu.icache.ReadReq.avgMissLatency::cpu.inst 59348.348605                       # average ReadReq miss latency ((Tick/Count))
system.cpu.icache.ReadReq.avgMissLatency::total 59348.348605                       # average ReadReq miss latency ((Tick/Count))
system.cpu.icache.ReadReq.mshrHits::cpu.inst          587                       # number of ReadReq MSHR hits (Count)
system.cpu.icache.ReadReq.mshrHits::total          587                       # number of ReadReq MSHR hits (Count)
system.cpu.icache.ReadReq.mshrMisses::cpu.inst         3320                       # number of ReadReq MSHR misses (Count)
system.cpu.icache.ReadReq.mshrMisses::total         3320                       # number of ReadReq MSHR misses (Count)
system.cpu.icache.ReadReq.mshrMissLatency::cpu.inst    197101499                       # number of ReadReq MSHR miss ticks (Tick)
system.cpu.icache.ReadReq.mshrMissLatency::total    197101499                       # number of ReadReq MSHR miss ticks (Tick)
system.cpu.icache.ReadReq.mshrMissRate::cpu.inst     0.003715                       # mshr miss rate for ReadReq accesses (Ratio)
system.cpu.icache.ReadReq.mshrMissRate::total     0.003715                       # mshr miss rate for ReadReq accesses (Ratio)
system.cpu.icache.ReadReq.avgMshrMissLatency::cpu.inst 59367.921386                       # average ReadReq mshr miss latency ((Tick/Count))
system.cpu.icache.ReadReq.avgMshrMissLatency::total 59367.921386                       # average ReadReq mshr miss latency ((Tick/Count))
system.cpu.icache.power_state.pwrStateResidencyTicks::UNDEFINED   2137917000                       # Cumulative time (in ticks) in various power states (Tick)
system.cpu.icache.tags.tagsInUse            63.874910                       # Average ticks per tags in use ((Tick/Count))
system.cpu.icache.tags.totalRefs               892974                       # Total number of references to valid blocks. (Count)
system.cpu.icache.tags.sampledRefs               3319                       # Sample count of references to valid blocks. (Count)
system.cpu.icache.tags.avgRefs             269.049111                       # Average number of references to valid blocks. ((Count/Count))
system.cpu.icache.tags.warmupTick            10643000                       # The tick when the warmup percentage was hit. (Tick)
system.cpu.icache.tags.occupancies::cpu.inst    63.874910                       # Average occupied blocks per tick, per requestor ((Count/Tick))
system.cpu.icache.tags.avgOccs::cpu.inst     0.998045                       # Average percentage of cache occupancy ((Ratio/Tick))
system.cpu.icache.tags.avgOccs::total        0.998045                       # Average percentage of cache occupancy ((Ratio/Tick))
system.cpu.icache.tags.occupanciesTaskId::1024           64                       # Occupied blocks per task id (Count)
system.cpu.icache.tags.ageTaskId_1024::0           63                       # Occupied blocks per task id, per block age (Count)
system.cpu.icache.tags.ageTaskId_1024::1            1                       # Occupied blocks per task id, per block age (Count)
system.cpu.icache.tags.ratioOccsTaskId::1024            1                       # Ratio of occupied blocks and all blocks, per task id (Ratio)
system.cpu.icache.tags.tagAccesses            1790443                       # Number of tag accesses (Count)
system.cpu.icache.tags.dataAccesses           1790443                       # Number of data accesses (Count)
system.cpu.icache.tags.power_state.pwrStateResidencyTicks::UNDEFINED   2137917000                       # Cumulative time (in ticks) in various power states (Tick)
system.cpu.iew.idleCycles                           0                       # Number of cycles IEW is idle (Cycle)
system.cpu.iew.squashCycles                      5084                       # Number of cycles IEW is squashing (Cycle)
system.cpu.iew.blockCycles                      18173                       # Number of cycles IEW is blocking (Cycle)
system.cpu.iew.unblockCycles                     2748                       # Number of cycles IEW is unblocking (Cycle)
system.cpu.iew.dispatchedInsts               10852109                       # Number of instructions dispatched to IQ (Count)
system.cpu.iew.dispSquashedInsts                  460                       # Number of squashed instructions skipped by dispatch (Count)
system.cpu.iew.dispLoadInsts                  2263400                       # Number of dispatched load instructions (Count)
system.cpu.iew.dispStoreInsts                  820307                       # Number of dispatched store instructions (Count)
system.cpu.iew.dispNonSpecInsts                    60                       # Number of dispatched non-speculative instructions (Count)
system.cpu.iew.iqFullEvents                         1                       # Number of times the IQ has become full, causing a stall (Count)
system.cpu.iew.lsqFullEvents                     2746                       # Number of times the LSQ has become full, causing a stall (Count)
system.cpu.iew.memOrderViolationEvents            149                       # Number of memory order violations (Count)
system.cpu.iew.predictedTakenIncorrect           2236                       # Number of branches that were predicted taken incorrectly (Count)
system.cpu.iew.predictedNotTakenIncorrect         3256                       # Number of branches that were predicted not taken incorrectly (Count)
system.cpu.iew.branchMispredicts                 5492                       # Number of branch mispredicts detected at execute (Count)
system.cpu.iew.instsToCommit                 10798907                       # Cumulative count of insts sent to commit (Count)
system.cpu.iew.writebackCount                10797087                       # Cumulative count of insts written-back (Count)
system.cpu.iew.producerInst                   8697495                       # Number of instructions producing a value (Count)
system.cpu.iew.consumerInst                  11850392                       # Number of instructions consuming a value (Count)
system.cpu.iew.wbRate                        2.525141                       # Insts written-back per cycle ((Count/Cycle))
system.cpu.iew.wbFanout                      0.733942                       # Average fanout of values written-back ((Count/Count))
system.cpu.interrupts.clk_domain.clock           8000                       # Clock period in ticks (Tick)
system.cpu.lsq0.forwLoads                     1569479                       # Number of loads that had data forwarded from stores (Count)
system.cpu.lsq0.squashedLoads                   20029                       # Number of loads squashed (Count)
[...]
system.mem_ctrls.dram.numReads::cpu.inst         2375                       # Number of read requests responded to by this memory (Count)
system.mem_ctrls.dram.numReads::cpu.data        10980                       # Number of read requests responded to by this memory (Count)
system.mem_ctrls.dram.numReads::total           13355                       # Number of read requests responded to by this memory (Count)
system.mem_ctrls.dram.numWrites::writebacks         7938                       # Number of write requests responded to by this memory (Count)
system.mem_ctrls.dram.numWrites::total           7938                       # Number of write requests responded to by this memory (Count)
system.mem_ctrls.dram.bwRead::cpu.inst       71097241                       # Total read bandwidth from this memory ((Byte/Second))
system.mem_ctrls.dram.bwRead::cpu.data      328693771                       # Total read bandwidth from this memory ((Byte/Second))
system.mem_ctrls.dram.bwRead::total         399791012                       # Total read bandwidth from this memory ((Byte/Second))
system.mem_ctrls.dram.bwInstRead::cpu.inst     71097241                       # Instruction read bandwidth from this memory ((Byte/Second))
system.mem_ctrls.dram.bwInstRead::total      71097241                       # Instruction read bandwidth from this memory ((Byte/Second))
system.mem_ctrls.dram.bwWrite::writebacks    237629431                       # Write bandwidth from this memory ((Byte/Second))
system.mem_ctrls.dram.bwWrite::total        237629431                       # Write bandwidth from this memory ((Byte/Second))
system.mem_ctrls.dram.bwTotal::writebacks    237629431                       # Total bandwidth to/from this memory ((Byte/Second))
system.mem_ctrls.dram.bwTotal::cpu.inst      71097241                       # Total bandwidth to/from this memory ((Byte/Second))
system.mem_ctrls.dram.bwTotal::cpu.data     328693771                       # Total bandwidth to/from this memory ((Byte/Second))
system.mem_ctrls.dram.bwTotal::total        637420442                       # Total bandwidth to/from this memory ((Byte/Second))
system.mem_ctrls.dram.readBursts                12983                       # Number of DRAM read bursts (Count)
system.mem_ctrls.dram.writeBursts                7905                       # Number of DRAM write bursts (Count)
system.mem_ctrls.dram.perBankRdBursts::0          518                       # Per bank write bursts (Count)
system.mem_ctrls.dram.perBankRdBursts::1          373                       # Per bank write bursts (Count)
system.mem_ctrls.dram.perBankRdBursts::2          351                       # Per bank write bursts (Count)
system.mem_ctrls.dram.perBankRdBursts::3          241                       # Per bank write bursts (Count)
system.mem_ctrls.dram.perBankRdBursts::4          314                       # Per bank write bursts (Count)
system.mem_ctrls.dram.perBankRdBursts::5          385                       # Per bank write bursts (Count)
system.mem_ctrls.dram.perBankRdBursts::6          587                       # Per bank write bursts (Count)
system.mem_ctrls.dram.perBankRdBursts::7          227                       # Per bank write bursts (Count)
system.mem_ctrls.dram.perBankRdBursts::8          981                       # Per bank write bursts (Count)
system.mem_ctrls.dram.perBankRdBursts::9         2065                       # Per bank write bursts (Count)
system.mem_ctrls.dram.perBankRdBursts::10         1810                       # Per bank write bursts (Count)
system.mem_ctrls.dram.perBankRdBursts::11         1638                       # Per bank write bursts (Count)
system.mem_ctrls.dram.perBankRdBursts::12         1445                       # Per bank write bursts (Count)
system.mem_ctrls.dram.perBankRdBursts::13         1105                       # Per bank write bursts (Count)
system.mem_ctrls.dram.perBankRdBursts::14          509                       # Per bank write bursts (Count)
system.mem_ctrls.dram.perBankRdBursts::15          434                       # Per bank write bursts (Count)
system.mem_ctrls.dram.perBankWrBursts::0           45                       # Per bank write bursts (Count)
system.mem_ctrls.dram.perBankWrBursts::1           43                       # Per bank write bursts (Count)
system.mem_ctrls.dram.perBankWrBursts::2           63                       # Per bank write bursts (Count)
system.mem_ctrls.dram.perBankWrBursts::3           58                       # Per bank write bursts (Count)
system.mem_ctrls.dram.perBankWrBursts::4            0                       # Per bank write bursts (Count)
system.mem_ctrls.dram.perBankWrBursts::5          131                       # Per bank write bursts (Count)
system.mem_ctrls.dram.perBankWrBursts::6          303                       # Per bank write bursts (Count)
system.mem_ctrls.dram.perBankWrBursts::7           14                       # Per bank write bursts (Count)
system.mem_ctrls.dram.perBankWrBursts::8          675                       # Per bank write bursts (Count)
system.mem_ctrls.dram.perBankWrBursts::9         1639                       # Per bank write bursts (Count)
system.mem_ctrls.dram.perBankWrBursts::10         1577                       # Per bank write bursts (Count)
system.mem_ctrls.dram.perBankWrBursts::11         1269                       # Per bank write bursts (Count)
system.mem_ctrls.dram.perBankWrBursts::12         1268                       # Per bank write bursts (Count)
system.mem_ctrls.dram.perBankWrBursts::13          664                       # Per bank write bursts (Count)
system.mem_ctrls.dram.perBankWrBursts::14          156                       # Per bank write bursts (Count)
system.mem_ctrls.dram.perBankWrBursts::15            0                       # Per bank write bursts (Count)
system.mem_ctrls.dram.totQLat               117226500                       # Total ticks spent queuing (Tick)
system.mem_ctrls.dram.totBusLat              64915000                       # Total ticks spent in databus transfers (Tick)
system.mem_ctrls.dram.totMemAccLat          360657750                       # Total ticks spent from burst creation until serviced by the DRAM (Tick)
system.mem_ctrls.dram.avgQLat                 9029.23                       # Average queueing delay per DRAM burst ((Tick/Count))
system.mem_ctrls.dram.avgBusLat               5000.00                       # Average bus latency per DRAM burst ((Tick/Count))
system.mem_ctrls.dram.avgMemAccLat           27779.23                       # Average memory access latency per DRAM burst ((Tick/Count))
system.mem_ctrls.dram.readRowHits               11165                       # Number of row buffer hits during reads (Count)
system.mem_ctrls.dram.writeRowHits               7163                       # Number of row buffer hits during writes (Count)
system.mem_ctrls.dram.readRowHitRate            86.00                       # Row buffer hit rate for reads (Ratio)
system.mem_ctrls.dram.writeRowHitRate           90.61                       # Row buffer hit rate for writes (Ratio)
system.mem_ctrls.dram.bytesPerActivate::samples         2549                       # Bytes accessed per row activation (Byte)
system.mem_ctrls.dram.bytesPerActivate::mean   522.947038                       # Bytes accessed per row activation (Byte)
system.mem_ctrls.dram.bytesPerActivate::gmean   330.161653                       # Bytes accessed per row activation (Byte)
system.mem_ctrls.dram.bytesPerActivate::stdev   402.711909                       # Bytes accessed per row activation (Byte)
system.mem_ctrls.dram.bytesPerActivate::0-127          507     19.89%     19.89% # Bytes accessed per row activation (Byte)
system.mem_ctrls.dram.bytesPerActivate::128-255          458     17.97%     37.86% # Bytes accessed per row activation (Byte)
system.mem_ctrls.dram.bytesPerActivate::256-383          261     10.24%     48.10% # Bytes accessed per row activation (Byte)
system.mem_ctrls.dram.bytesPerActivate::384-511          155      6.08%     54.18% # Bytes accessed per row activation (Byte)
system.mem_ctrls.dram.bytesPerActivate::512-639          101      3.96%     58.14% # Bytes accessed per row activation (Byte)
system.mem_ctrls.dram.bytesPerActivate::640-767           83      3.26%     61.40% # Bytes accessed per row activation (Byte)
system.mem_ctrls.dram.bytesPerActivate::768-895           90      3.53%     64.93% # Bytes accessed per row activation (Byte)
system.mem_ctrls.dram.bytesPerActivate::896-1023           74      2.90%     67.83% # Bytes accessed per row activation (Byte)
system.mem_ctrls.dram.bytesPerActivate::1024-1151          820     32.17%    100.00% # Bytes accessed per row activation (Byte)
system.mem_ctrls.dram.bytesPerActivate::total         2549                       # Bytes accessed per row activation (Byte)
system.mem_ctrls.dram.bytesRead                830912                       # Total bytes read (Byte)
system.mem_ctrls.dram.bytesWritten             505920                       # Total bytes written (Byte)
system.mem_ctrls.dram.avgRdBW              388.654938                       # Average DRAM read bandwidth in MiBytes/s ((Byte/Second))
system.mem_ctrls.dram.avgWrBW              236.641553                       # Average DRAM write bandwidth in MiBytes/s ((Byte/Second))
system.mem_ctrls.dram.peakBW                 12800.00                       # Theoretical peak bandwidth in MiByte/s ((Byte/Second))
system.mem_ctrls.dram.busUtil                    4.89                       # Data bus utilization in percentage (Ratio)
system.mem_ctrls.dram.busUtilRead                3.04                       # Data bus utilization in percentage for reads (Ratio)
system.mem_ctrls.dram.busUtilWrite               1.85                       # Data bus utilization in percentage for writes (Ratio)
system.mem_ctrls.dram.pageHitRate               87.74                       # Row buffer hit rate, read and write combined (Ratio)
system.mem_ctrls.dram.power_state.pwrStateResidencyTicks::UNDEFINED   2137917000                       # Cumulative time (in ticks) in various power states (Tick)
system.mem_ctrls.dram.rank0.actEnergy         5176500                       # Energy for activate commands per rank (pJ) (Joule)
system.mem_ctrls.dram.rank0.preEnergy         2732400                       # Energy for precharge commands per rank (pJ) (Joule)
system.mem_ctrls.dram.rank0.readEnergy       21391440                       # Energy for read commands per rank (pJ) (Joule)
system.mem_ctrls.dram.rank0.writeEnergy       3429540                       # Energy for write commands per rank (pJ) (Joule)
system.mem_ctrls.dram.rank0.refreshEnergy 168411360.000000                       # Energy for refresh commands per rank (pJ) (Joule)
system.mem_ctrls.dram.rank0.actBackEnergy    255655260                       # Energy for active background per rank (pJ) (Joule)
system.mem_ctrls.dram.rank0.preBackEnergy    605671680                       # Energy for precharge background per rank (pJ) (Joule)
system.mem_ctrls.dram.rank0.actPowerDownEnergy            0                       # Energy for active power-down per rank (pJ) (Joule)
system.mem_ctrls.dram.rank0.prePowerDownEnergy            0                       # Energy for precharge power-down per rank (pJ) (Joule)
system.mem_ctrls.dram.rank0.selfRefreshEnergy            0                       # Energy for self refresh per rank (pJ) (Joule)
system.mem_ctrls.dram.rank0.totalEnergy    1062468180                       # Total energy per rank (pJ) (Joule)
system.mem_ctrls.dram.rank0.averagePower   496.964185                       # Core power per rank (mW) (Watt)
system.mem_ctrls.dram.rank0.totalIdleTime            0                       # Total Idle time Per DRAM Rank (Tick)
system.mem_ctrls.dram.rank0.pwrStateTime::IDLE   1571821500                       # Time in different power states (Tick)
system.mem_ctrls.dram.rank0.pwrStateTime::REF     71240000                       # Time in different power states (Tick)
system.mem_ctrls.dram.rank0.pwrStateTime::SREF            0                       # Time in different power states (Tick)
system.mem_ctrls.dram.rank0.pwrStateTime::PRE_PDN            0                       # Time in different power states (Tick)
system.mem_ctrls.dram.rank0.pwrStateTime::ACT    494855500                       # Time in different power states (Tick)
system.mem_ctrls.dram.rank0.pwrStateTime::ACT_PDN            0                       # Time in different power states (Tick)
system.mem_ctrls.dram.rank1.actEnergy        13101900                       # Energy for activate commands per rank (pJ) (Joule)
system.mem_ctrls.dram.rank1.preEnergy         6937260                       # Energy for precharge commands per rank (pJ) (Joule)
system.mem_ctrls.dram.rank1.readEnergy       71307180                       # Energy for read commands per rank (pJ) (Joule)
system.mem_ctrls.dram.rank1.writeEnergy      37834560                       # Energy for write commands per rank (pJ) (Joule)
system.mem_ctrls.dram.rank1.refreshEnergy 168411360.000000                       # Energy for refresh commands per rank (pJ) (Joule)
system.mem_ctrls.dram.rank1.actBackEnergy    813499440                       # Energy for active background per rank (pJ) (Joule)
system.mem_ctrls.dram.rank1.preBackEnergy    135908160                       # Energy for precharge background per rank (pJ) (Joule)
system.mem_ctrls.dram.rank1.actPowerDownEnergy            0                       # Energy for active power-down per rank (pJ) (Joule)
system.mem_ctrls.dram.rank1.prePowerDownEnergy            0                       # Energy for precharge power-down per rank (pJ) (Joule)
system.mem_ctrls.dram.rank1.selfRefreshEnergy            0                       # Energy for self refresh per rank (pJ) (Joule)
system.mem_ctrls.dram.rank1.totalEnergy    1246999860                       # Total energy per rank (pJ) (Joule)
system.mem_ctrls.dram.rank1.averagePower   583.277957                       # Core power per rank (mW) (Watt)
system.mem_ctrls.dram.rank1.totalIdleTime            0                       # Total Idle time Per DRAM Rank (Tick)
system.mem_ctrls.dram.rank1.pwrStateTime::IDLE    345499250                       # Time in different power states (Tick)
system.mem_ctrls.dram.rank1.pwrStateTime::REF     71240000                       # Time in different power states (Tick)
system.mem_ctrls.dram.rank1.pwrStateTime::SREF            0                       # Time in different power states (Tick)
system.mem_ctrls.dram.rank1.pwrStateTime::PRE_PDN            0                       # Time in different power states (Tick)
system.mem_ctrls.dram.rank1.pwrStateTime::ACT   1721177750                       # Time in different power states (Tick)
system.mem_ctrls.dram.rank1.pwrStateTime::ACT_PDN            0                       # Time in different power states (Tick)
system.mem_ctrls.power_state.pwrStateResidencyTicks::UNDEFINED   2137917000                       # Cumulative time (in ticks) in various power states (Tick)
system.membus.transDist::ReadResp                8430                       # Transaction distribution (Count)
system.membus.transDist::WritebackDirty          7938                       # Transaction distribution (Count)
system.membus.transDist::CleanEvict              4905                       # Transaction distribution (Count)
system.membus.transDist::ReadExReq               4925                       # Transaction distribution (Count)
system.membus.transDist::ReadExResp              4925                       # Transaction distribution (Count)
system.membus.transDist::ReadSharedReq           8431                       # Transaction distribution (Count)
system.membus.pktCount_system.l2cache.mem_side_port::system.mem_ctrls.port        39554                       # Packet count per connected requestor and responder (Count)
system.membus.pktCount_system.l2cache.mem_side_port::total        39554                       # Packet count per connected requestor and responder (Count)
system.membus.pktCount::total                   39554                       # Packet count per connected requestor and responder (Count)
system.membus.pktSize_system.l2cache.mem_side_port::system.mem_ctrls.port      1362752                       # Cumulative packet size per connected requestor and responder (Byte)
system.membus.pktSize_system.l2cache.mem_side_port::total      1362752                       # Cumulative packet size per connected requestor and responder (Byte)
system.membus.pktSize::total                  1362752                       # Cumulative packet size per connected requestor and responder (Byte)
system.membus.snoops                                0                       # Total snoops (Count)
system.membus.snoopTraffic                          0                       # Total snoop traffic (Byte)
system.membus.snoopFanout::samples              13356                       # Request fanout histogram (Count)
system.membus.snoopFanout::mean                     0                       # Request fanout histogram (Count)
system.membus.snoopFanout::stdev                    0                       # Request fanout histogram (Count)
system.membus.snoopFanout::underflows               0      0.00%      0.00% # Request fanout histogram (Count)
system.membus.snoopFanout::0                    13356    100.00%    100.00% # Request fanout histogram (Count)
system.membus.snoopFanout::1                        0      0.00%    100.00% # Request fanout histogram (Count)
system.membus.snoopFanout::overflows                0      0.00%    100.00% # Request fanout histogram (Count)
system.membus.snoopFanout::min_value                0                       # Request fanout histogram (Count)
system.membus.snoopFanout::max_value                0                       # Request fanout histogram (Count)
system.membus.snoopFanout::total                13356                       # Request fanout histogram (Count)
system.membus.power_state.pwrStateResidencyTicks::UNDEFINED   2137917000                       # Cumulative time (in ticks) in various power states (Tick)
system.membus.reqLayer2.occupancy            28975500                       # Layer occupancy (ticks) (Tick)
system.membus.reqLayer2.utilization               0.0                       # Layer utilization (Ratio)
system.membus.respLayer1.occupancy           36269750                       # Layer occupancy (ticks) (Tick)
system.membus.respLayer1.utilization              0.0                       # Layer utilization (Ratio)
system.membus.snoop_filter.totRequests          26199                       # Total number of requests made to the snoop filter. (Count)
system.membus.snoop_filter.hitSingleRequests        12844                       # Number of requests hitting in the snoop filter with a single holder of the requested data. (Count)
system.membus.snoop_filter.hitMultiRequests            0                       # Number of requests hitting in the snoop filter with multiple (>1) holders of the requested data. (Count)
system.membus.snoop_filter.totSnoops                0                       # Total number of snoops made to the snoop filter. (Count)
system.membus.snoop_filter.hitSingleSnoops            0                       # Number of snoops hitting in the snoop filter with a single holder of the requested data. (Count)
system.membus.snoop_filter.hitMultiSnoops            0                       # Number of snoops hitting in the snoop filter with multiple (>1) holders of the requested data. (Count)
system.workload.inst.arm                            0                       # number of arm instructions executed (Count)
system.workload.inst.quiesce                        0                       # number of quiesce instructions executed (Count)

---------- End Simulation Statistics   ----------
