
---------- Begin Simulation Statistics ----------
simSeconds                                   0.002091                       # Number of seconds simulated (Second)
simTicks                                   2090882500                       # Number of ticks simulated (Tick)
finalTick                                  2090882500                       # Number of ticks from beginning of simulation (restored from checkpoints and never reset) (Tick)
simFreq                                  1000000000000                       # The number of ticks per simulated second ((Tick/Second))
hostSeconds                                     24.17                       # Real time elapsed on the host (Second)
hostTickRate                                 86516284                       # The number of ticks simulated per host second (ticks/s) ((Tick/Second))
hostMemory                                     924380                       # Number of bytes of host memory used (Byte)
simInsts                                      6436803                       # Number of instructions simulated (Count)
simOps                                       10693060                       # Number of ops (including micro ops) simulated (Count)
hostInstRate                                   266340                       # Simulator instruction rate (inst/s) ((Count/Second))
hostOpRate                                     442454                       # Simulator op (including micro ops) rate (op/s) ((Count/Second))
system.clk_domain.clock                           500                       # Clock period in ticks (Tick)
system.clk_domain.voltage_domain.voltage            1                       # Voltage in Volts (Volt)
system.cpu.numCycles                          4181766                       # Number of cpu cycles simulated (Cycle)
system.cpu.numWorkItemsStarted                      0                       # Number of work items this cpu started (Count)
system.cpu.numWorkItemsCompleted                    0                       # Number of work items this cpu completed (Count)
system.cpu.instsAdded                        10914711                       # Number of instructions added to the IQ (excludes non-spec) (Count)
system.cpu.nonSpecInstsAdded                      142                       # Number of non-speculative instructions added to the IQ (Count)
system.cpu.instsIssued                       10854021                       # Number of instructions issued (Count)
system.cpu.squashedInstsIssued                    232                       # Number of squashed instructions issued (Count)
system.cpu.squashedInstsExamined               221752                       # Number of squashed instructions iterated over during squash; mainly for profiling (Count)
system.cpu.squashedOperandsExamined            365487                       # Number of squashed operands that are examined and possibly removed from graph (Count)
system.cpu.squashedNonSpecRemoved                 118                       # Number of squashed non-spec instructions that were removed (Count)
system.cpu.numIssuedDist::samples             3973702                       # Number of insts issued each cycle (Count)
system.cpu.numIssuedDist::mean               2.731463                       # Number of insts issued each cycle (Count)
system.cpu.numIssuedDist::stdev              2.030889                       # Number of insts issued each cycle (Count)
system.cpu.numIssuedDist::underflows                0      0.00%      0.00% # Number of insts issued each cycle (Count)
system.cpu.numIssuedDist::0                    912348     22.96%     22.96% # Number of insts issued each cycle (Count)
system.cpu.numIssuedDist::1                    265595      6.68%     29.64% # Number of insts issued each cycle (Count)
system.cpu.numIssuedDist::2                    515017     12.96%     42.60% # Number of insts issued each cycle (Count)
system.cpu.numIssuedDist::3                    853522     21.48%     64.08% # Number of insts issued each cycle (Count)
system.cpu.numIssuedDist::4                    650039     16.36%     80.44% # Number of insts issued each cycle (Count)
system.cpu.numIssuedDist::5                    483426     12.17%     92.61% # Number of insts issued each cycle (Count)
system.cpu.numIssuedDist::6                    142736      3.59%     96.20% # Number of insts issued each cycle (Count)
system.cpu.numIssuedDist::7                     84028      2.11%     98.31% # Number of insts issued each cycle (Count)
system.cpu.numIssuedDist::8                     66991      1.69%    100.00% # Number of insts issued each cycle (Count)
system.cpu.numIssuedDist::overflows                 0      0.00%    100.00% # Number of insts issued each cycle (Count)
system.cpu.numIssuedDist::min_value                 0                       # Number of insts issued each cycle (Count)
system.cpu.numIssuedDist::max_value                 8                       # Number of insts issued each cycle (Count)
system.cpu.numIssuedDist::total               3973702                       # Number of insts issued each cycle (Count)
system.cpu.statFuBusy::No_OpClass                   0      0.00%      0.00% # attempts to use FU when none available (Count)
system.cpu.statFuBusy::IntAlu                       0      0.00%      0.00% # attempts to use FU when none available (Count)
system.cpu.statFuBusy::IntMult                      0      0.00%      0.00% # attempts to use FU when none available (Count)
system.cpu.statFuBusy::IntDiv                       0      0.00%      0.00% # attempts to use FU when none available (Count)
system.cpu.statFuBusy::FloatAdd                     0      0.00%      0.00% # attempts to use FU when none available (Count)
system.cpu.statFuBusy::FloatCmp                     0      0.00%      0.00% # attempts to use FU when none available (Count)
system.cpu.statFuBusy::FloatCvt                     0      0.00%      0.00% # attempts to use FU when none available (Count)
system.cpu.statFuBusy::FloatMult                    0      0.00%      0.00% # attempts to use FU when none available (Count)
system.cpu.statFuBusy::FloatMultAcc                 0      0.00%      0.00% # attempts to use FU when none available (Count)
system.cpu.statFuBusy::FloatDiv                     0      0.00%      0.00% # attempts to use FU when none available (Count)
system.cpu.statFuBusy::FloatMisc                    0      0.00%      0.00% # attempts to use FU when none available (Count)
system.cpu.statFuBusy::FloatSqrt                    0      0.00%      0.00% # attempts to use FU when none available (Count)
system.cpu.statFuBusy::SimdAdd                      0      0.00%      0.00% # attempts to use FU when none available (Count)
system.cpu.statFuBusy::SimdAddAcc                   0      0.00%      0.00% # attempts to use FU when none available (Count)
system.cpu.statFuBusy::SimdAlu                     24      0.02%      0.02% # attempts to use FU when none available (Count)
system.cpu.statFuBusy::SimdCmp                      0      0.00%      0.02% # attempts to use FU when none available (Count)
system.cpu.statFuBusy::SimdCvt                      0      0.00%      0.02% # attempts to use FU when none available (Count)
system.cpu.statFuBusy::SimdMisc                     2      0.00%      0.02% # attempts to use FU when none available (Count)
system.cpu.statFuBusy::SimdMult                     0      0.00%      0.02% # attempts to use FU when none available (Count)
system.cpu.statFuBusy::SimdMultAcc                  0      0.00%      0.02% # attempts to use FU when none available (Count)
system.cpu.statFuBusy::SimdShift                    0      0.00%      0.02% # attempts to use FU when none available (Count)
system.cpu.statFuBusy::SimdShiftAcc                 0      0.00%      0.02% # attempts to use FU when none available (Count)
system.cpu.statFuBusy::SimdDiv                      0      0.00%      0.02% # attempts to use FU when none available (Count)
system.cpu.statFuBusy::SimdSqrt                     0      0.00%      0.02% # attempts to use FU when none available (Count)
system.cpu.statFuBusy::SimdFloatAdd                 0      0.00%      0.02% # attempts to use FU when none available (Count)
system.cpu.statFuBusy::SimdFloatAlu                 0      0.00%      0.02% # attempts to use FU when none available (Count)
system.cpu.statFuBusy::SimdFloatCmp                 0      0.00%      0.02% # attempts to use FU when none available (Count)
system.cpu.statFuBusy::SimdFloatCvt                 0      0.00%      0.02% # attempts to use FU when none available (Count)
system.cpu.statFuBusy::SimdFloatDiv                 0      0.00%      0.02% # attempts to use FU when none available (Count)
system.cpu.statFuBusy::SimdFloatMisc                0      0.00%      0.02% # attempts to use FU when none available (Count)
system.cpu.statFuBusy::SimdFloatMult                0      0.00%      0.02% # attempts to use FU when none available (Count)
system.cpu.statFuBusy::SimdFloatMultAcc             0      0.00%      0.02% # attempts to use FU when none available (Count)
system.cpu.statFuBusy::SimdFloatSqrt                0      0.00%      0.02% # attempts to use FU when none available (Count)
system.cpu.statFuBusy::SimdReduceAdd                0      0.00%      0.02% # attempts to use FU when none available (Count)
system.cpu.statFuBusy::SimdReduceAlu                0      0.00%      0.02% # attempts to use FU when none available (Count)
system.cpu.statFuBusy::SimdReduceCmp                0      0.00%      0.02% # attempts to use FU when none available (Count)
system.cpu.statFuBusy::SimdFloatReduceAdd            0      0.00%      0.02% # attempts to use FU when none available (Count)
system.cpu.statFuBusy::SimdFloatReduceCmp            0      0.00%      0.02% # attempts to use FU when none available (Count)
system.cpu.statFuBusy::SimdAes                      0      0.00%      0.02% # attempts to use FU when none available (Count)
system.cpu.statFuBusy::SimdAesMix                   0      0.00%      0.02% # attempts to use FU when none available (Count)
system.cpu.statFuBusy::SimdSha1Hash                 0      0.00%      0.02% # attempts to use FU when none available (Count)
system.cpu.statFuBusy::SimdSha1Hash2                0      0.00%      0.02% # attempts to use FU when none available (Count)
system.cpu.statFuBusy::SimdSha256Hash               0      0.00%      0.02% # attempts to use FU when none available (Count)
system.cpu.statFuBusy::SimdSha256Hash2              0      0.00%      0.02% # attempts to use FU when none available (Count)
system.cpu.statFuBusy::SimdShaSigma2                0      0.00%      0.02% # attempts to use FU when none available (Count)
system.cpu.statFuBusy::SimdShaSigma3                0      0.00%      0.02% # attempts to use FU when none available (Count)
system.cpu.statFuBusy::SimdPredAlu                  0      0.00%      0.02% # attempts to use FU when none available (Count)
system.cpu.statFuBusy::MemRead                  67682     48.53%     48.55% # attempts to use FU when none available (Count)
system.cpu.statFuBusy::MemWrite                 71651     51.37%     99.92% # attempts to use FU when none available (Count)
system.cpu.statFuBusy::FloatMemRead                32      0.02%     99.94% # attempts to use FU when none available (Count)
system.cpu.statFuBusy::FloatMemWrite               77      0.06%    100.00% # attempts to use FU when none available (Count)
system.cpu.statFuBusy::IprAccess                    0      0.00%    100.00% # attempts to use FU when none available (Count)
system.cpu.statFuBusy::InstPrefetch                 0      0.00%    100.00% # attempts to use FU when none available (Count)
system.cpu.statIssuedInstType_0::No_OpClass         2779      0.03%      0.03% # Number of instructions issued per FU type, per thread (Count)
system.cpu.statIssuedInstType_0::IntAlu       7458106     68.71%     68.74% # Number of instructions issued per FU type, per thread (Count)
system.cpu.statIssuedInstType_0::IntMult       300343      2.77%     71.51% # Number of instructions issued per FU type, per thread (Count)
system.cpu.statIssuedInstType_0::IntDiv          1698      0.02%     71.52% # Number of instructions issued per FU type, per thread (Count)
system.cpu.statIssuedInstType_0::FloatAdd          216      0.00%     71.52% # Number of instructions issued per FU type, per thread (Count)
system.cpu.statIssuedInstType_0::FloatCmp            0      0.00%     71.52% # Number of instructions issued per FU type, per thread (Count)
system.cpu.statIssuedInstType_0::FloatCvt           32      0.00%     71.52% # Number of instructions issued per FU type, per thread (Count)
system.cpu.statIssuedInstType_0::FloatMult            0      0.00%     71.52% # Number of instructions issued per FU type, per thread (Count)
system.cpu.statIssuedInstType_0::FloatMultAcc            0      0.00%     71.52% # Number of instructions issued per FU type, per thread (Count)
system.cpu.statIssuedInstType_0::FloatDiv            0      0.00%     71.52% # Number of instructions issued per FU type, per thread (Count)
system.cpu.statIssuedInstType_0::FloatMisc            0      0.00%     71.52% # Number of instructions issued per FU type, per thread (Count)
system.cpu.statIssuedInstType_0::FloatSqrt            0      0.00%     71.52% # Number of instructions issued per FU type, per thread (Count)
system.cpu.statIssuedInstType_0::SimdAdd          414      0.00%     71.53% # Number of instructions issued per FU type, per thread (Count)
system.cpu.statIssuedInstType_0::SimdAddAcc            0      0.00%     71.53% # Number of instructions issued per FU type, per thread (Count)
system.cpu.statIssuedInstType_0::SimdAlu         1044      0.01%     71.54% # Number of instructions issued per FU type, per thread (Count)
system.cpu.statIssuedInstType_0::SimdCmp            0      0.00%     71.54% # Number of instructions issued per FU type, per thread (Count)
system.cpu.statIssuedInstType_0::SimdCvt         1199      0.01%     71.55% # Number of instructions issued per FU type, per thread (Count)
system.cpu.statIssuedInstType_0::SimdMisc          935      0.01%     71.56% # Number of instructions issued per FU type, per thread (Count)
system.cpu.statIssuedInstType_0::SimdMult            0      0.00%     71.56% # Number of instructions issued per FU type, per thread (Count)
system.cpu.statIssuedInstType_0::SimdMultAcc            0      0.00%     71.56% # Number of instructions issued per FU type, per thread (Count)
system.cpu.statIssuedInstType_0::SimdShift          333      0.00%     71.56% # Number of instructions issued per FU type, per thread (Count)
system.cpu.statIssuedInstType_0::SimdShiftAcc            0      0.00%     71.56% # Number of instructions issued per FU type, per thread (Count)
system.cpu.statIssuedInstType_0::SimdDiv            0      0.00%     71.56% # Number of instructions issued per FU type, per thread (Count)
system.cpu.statIssuedInstType_0::SimdSqrt            0      0.00%     71.56% # Number of instructions issued per FU type, per thread (Count)
system.cpu.statIssuedInstType_0::SimdFloatAdd            0      0.00%     71.56% # Number of instructions issued per FU type, per thread (Count)
system.cpu.statIssuedInstType_0::SimdFloatAlu            0      0.00%     71.56% # Number of instructions issued per FU type, per thread (Count)
system.cpu.statIssuedInstType_0::SimdFloatCmp            0      0.00%     71.56% # Number of instructions issued per FU type, per thread (Count)
system.cpu.statIssuedInstType_0::SimdFloatCvt            0      0.00%     71.56% # Number of instructions issued per FU type, per thread (Count)
system.cpu.statIssuedInstType_0::SimdFloatDiv            0      0.00%     71.56% # Number of instructions issued per FU type, per thread (Count)
system.cpu.statIssuedInstType_0::SimdFloatMisc            0      0.00%     71.56% # Number of instructions issued per FU type, per thread (Count)
system.cpu.statIssuedInstType_0::SimdFloatMult            0      0.00%     71.56% # Number of instructions issued per FU type, per thread (Count)
system.cpu.statIssuedInstType_0::SimdFloatMultAcc            0      0.00%     71.56% # Number of instructions issued per FU type, per thread (Count)
system.cpu.statIssuedInstType_0::SimdFloatSqrt            0      0.00%     71.56% # Number of instructions issued per FU type, per thread (Count)
system.cpu.statIssuedInstType_0::SimdReduceAdd            0      0.00%     71.56% # Number of instructions issued per FU type, per thread (Count)
system.cpu.statIssuedInstType_0::SimdReduceAlu            0      0.00%     71.56% # Number of instructions issued per FU type, per thread (Count)
system.cpu.statIssuedInstType_0::SimdReduceCmp            0      0.00%     71.56% # Number of instructions issued per FU type, per thread (Count)
system.cpu.statIssuedInstType_0::SimdFloatReduceAdd            0      0.00%     71.56% # Number of instructions issued per FU type, per thread (Count)
system.cpu.statIssuedInstType_0::SimdFloatReduceCmp            0      0.00%     71.56% # Number of instructions issued per FU type, per thread (Count)
system.cpu.statIssuedInstType_0::SimdAes            0      0.00%     71.56% # Number of instructions issued per FU type, per thread (Count)
system.cpu.statIssuedInstType_0::SimdAesMix            0      0.00%     71.56% # Number of instructions issued per FU type, per thread (Count)
system.cpu.statIssuedInstType_0::SimdSha1Hash            0      0.00%     71.56% # Number of instructions issued per FU type, per thread (Count)
system.cpu.statIssuedInstType_0::SimdSha1Hash2            0      0.00%     71.56% # Number of instructions issued per FU type, per thread (Count)
system.cpu.statIssuedInstType_0::SimdSha256Hash            0      0.00%     71.56% # Number of instructions issued per FU type, per thread (Count)
system.cpu.statIssuedInstType_0::SimdSha256Hash2            0      0.00%     71.56% # Number of instructions issued per FU type, per thread (Count)
system.cpu.statIssuedInstType_0::SimdShaSigma2            0      0.00%     71.56% # Number of instructions issued per FU type, per thread (Count)
system.cpu.statIssuedInstType_0::SimdShaSigma3            0      0.00%     71.56% # Number of instructions issued per FU type, per thread (Count)
system.cpu.statIssuedInstType_0::SimdPredAlu            0      0.00%     71.56% # Number of instructions issued per FU type, per thread (Count)
system.cpu.statIssuedInstType_0::MemRead      2264844     20.87%     92.43% # Number of instructions issued per FU type, per thread (Count)
system.cpu.statIssuedInstType_0::MemWrite       819867      7.55%     99.98% # Number of instructions issued per FU type, per thread (Count)
system.cpu.statIssuedInstType_0::FloatMemRead         1530      0.01%     99.99% # Number of instructions issued per FU type, per thread (Count)
system.cpu.statIssuedInstType_0::FloatMemWrite          681      0.01%    100.00% # Number of instructions issued per FU type, per thread (Count)
system.cpu.statIssuedInstType_0::IprAccess            0      0.00%    100.00% # Number of instructions issued per FU type, per thread (Count)
system.cpu.statIssuedInstType_0::InstPrefetch            0      0.00%    100.00% # Number of instructions issued per FU type, per thread (Count)
system.cpu.statIssuedInstType_0::total       10854021                       # Number of instructions issued per FU type, per thread (Count)
system.cpu.issueRate                         2.595559                       # Inst issue rate ((Count/Cycle))
system.cpu.fuBusy                              139468                       # FU busy when requested (Count)
system.cpu.fuBusyRate                        0.012849                       # FU busy rate (busy events/executed inst) ((Count/Count))
system.cpu.intInstQueueReads                 25808150                       # Number of integer instruction queue reads (Count)
system.cpu.intInstQueueWrites                11126461                       # Number of integer instruction queue writes (Count)
system.cpu.intInstQueueWakeupAccesses        10832447                       # Number of integer instruction queue wakeup accesses (Count)
system.cpu.fpInstQueueReads                     13291                       # Number of floating instruction queue reads (Count)
system.cpu.fpInstQueueWrites                    10303                       # Number of floating instruction queue writes (Count)
system.cpu.fpInstQueueWakeupAccesses             6220                       # Number of floating instruction queue wakeup accesses (Count)
system.cpu.vecInstQueueReads                        0                       # Number of vector instruction queue reads (Count)
system.cpu.vecInstQueueWrites                       0                       # Number of vector instruction queue writes (Count)
system.cpu.vecInstQueueWakeupAccesses               0                       # Number of vector instruction queue wakeup accesses (Count)
system.cpu.intAluAccesses                    10984015                       # Number of integer alu accesses (Count)
system.cpu.fpAluAccesses                         6695                       # Number of floating point alu accesses (Count)
system.cpu.vecAluAccesses                           0                       # Number of vector alu accesses (Count)
system.cpu.numInsts                          10843893                       # Number of executed instructions (Count)
system.cpu.numLoadInsts                       2263144                       # Number of load instructions executed (Count)
system.cpu.numSquashedInsts                     10125                       # Number of squashed instructions skipped in execute (Count)
system.cpu.numSwp                                   0                       # Number of swp insts executed (Count)
system.cpu.numNop                                   0                       # Number of nop insts executed (Count)
system.cpu.numRefs                            3083298                       # Number of memory reference insts executed (Count)
system.cpu.numBranches                         654573                       # Number of branches executed (Count)
system.cpu.numStoreInsts                       820154                       # Number of stores executed (Count)
system.cpu.numRate                           2.593137                       # Inst execution rate ((Count/Cycle))
system.cpu.timesIdled                            2391                       # Number of times that the entire CPU went into an idle state and unscheduled itself (Count)
system.cpu.idleCycles                          208064                       # Total number of cycles that the CPU has spent unscheduled due to idling (Cycle)
system.cpu.committedInsts                     6436803                       # Number of Instructions Simulated (Count)
system.cpu.committedOps                      10693060                       # Number of Ops (including micro ops) Simulated (Count)
system.cpu.cpi                               0.649665                       # CPI: Cycles Per Instruction ((Cycle/Count))
system.cpu.totalCpi                          0.649665                       # CPI: Total CPI of All Threads ((Cycle/Count))
system.cpu.ipc                               1.539255                       # IPC: Instructions Per Cycle ((Count/Cycle))
system.cpu.totalIpc                          1.539255                       # IPC: Total IPC of All Threads ((Count/Cycle))
system.cpu.intRegfileReads                   13704198                       # Number of integer regfile reads (Count)
system.cpu.intRegfileWrites                   9018754                       # Number of integer regfile writes (Count)
system.cpu.fpRegfileReads                        9781                       # Number of floating regfile reads (Count)
system.cpu.fpRegfileWrites                       4973                       # Number of floating regfile writes (Count)
system.cpu.ccRegfileReads                     2468586                       # number of cc regfile reads (Count)
system.cpu.ccRegfileWrites                    3080269                       # number of cc regfile writes (Count)
system.cpu.miscRegfileReads                   4854043                       # number of misc regfile reads (Count)
system.cpu.miscRegfileWrites                       18                       # number of misc regfile writes (Count)
system.cpu.MemDepUnit__0.insertedLoads        2271717                       # Number of loads inserted to the mem dependence unit. (Count)
system.cpu.MemDepUnit__0.insertedStores        822555                       # Number of stores inserted to the mem dependence unit. (Count)
system.cpu.MemDepUnit__0.conflictingLoads       992817                       # Number of conflicting loads. (Count)
system.cpu.MemDepUnit__0.conflictingStores       110919                       # Number of conflicting stores. (Count)
system.cpu.MemDepUnit__1.insertedLoads              0                       # Number of loads inserted to the mem dependence unit. (Count)
system.cpu.MemDepUnit__1.insertedStores             0                       # Number of stores inserted to the mem dependence unit. (Count)
system.cpu.MemDepUnit__1.conflictingLoads            0                       # Number of conflicting loads. (Count)
system.cpu.MemDepUnit__1.conflictingStores            0                       # Number of conflicting stores. (Count)
system.cpu.MemDepUnit__2.insertedLoads              0                       # Number of loads inserted to the mem dependence unit. (Count)
system.cpu.MemDepUnit__2.insertedStores             0                       # Number of stores inserted to the mem dependence unit. (Count)
system.cpu.MemDepUnit__2.conflictingLoads            0                       # Number of conflicting loads. (Count)
system.cpu.MemDepUnit__2.conflictingStores            0                       # Number of conflicting stores. (Count)
system.cpu.MemDepUnit__3.insertedLoads              0                       # Number of loads inserted to the mem dependence unit. (Count)
system.cpu.MemDepUnit__3.insertedStores             0                       # Number of stores inserted to the mem dependence unit. (Count)
system.cpu.MemDepUnit__3.conflictingLoads            0                       # Number of conflicting loads. (Count)
system.cpu.MemDepUnit__3.conflictingStores            0                       # Number of conflicting stores. (Count)
system.cpu.branchPred.lookups                  680647                       # Number of BP lookups (Count)
system.cpu.branchPred.condPredicted            465660                       # Number of conditional branches predicted (Count)
system.cpu.branchPred.condIncorrect              5318                       # Number of conditional branches incorrect (Count)
system.cpu.branchPred.BTBLookups               482312                       # Number of BTB lookups (Count)
system.cpu.branchPred.BTBHits                  481421                       # Number of BTB hits (Count)
system.cpu.branchPred.BTBHitRatio            0.998153                       # BTB Hit Ratio (Ratio)
system.cpu.branchPred.RASUsed                  102290                       # Number of times the RAS was used to get a target. (Count)
system.cpu.branchPred.RASIncorrect                  6                       # Number of incorrect RAS predictions. (Count)
system.cpu.branchPred.indirectLookups             961                       # Number of indirect predictor lookups. (Count)
system.cpu.branchPred.indirectHits                291                       # Number of indirect target hits. (Count)
system.cpu.branchPred.indirectMisses              670                       # Number of indirect misses. (Count)
system.cpu.branchPred.indirectMispredicted          279                       # Number of mispredicted indirect branches. (Count)
system.cpu.branchPred.loop_predictor.correct       426120                       # Number of times the loop predictor is the provider and the prediction is correct (Count)
system.cpu.branchPred.loop_predictor.wrong         8933                       # Number of times the loop predictor is the provider and the prediction is wrong (Count)
system.cpu.branchPred.tage.longestMatchProviderCorrect       389683                       # Number of times TAGE Longest Match is the provider and the prediction is correct (Count)
system.cpu.branchPred.tage.altMatchProviderCorrect         1432                       # Number of times TAGE Alt Match is the provider and the prediction is correct (Count)
system.cpu.branchPred.tage.bimodalAltMatchProviderCorrect          346                       # Number of times TAGE Alt Match is the bimodal and it is the provider and the prediction is correct (Count)
system.cpu.branchPred.tage.bimodalProviderCorrect        39808                       # Number of times there are no hits on the TAGE tables and the bimodal prediction is correct (Count)
system.cpu.branchPred.tage.longestMatchProviderWrong         1919                       # Number of times TAGE Longest Match is the provider and the prediction is wrong (Count)
system.cpu.branchPred.tage.altMatchProviderWrong          744                       # Number of times TAGE Alt Match is the provider and the prediction is wrong (Count)
system.cpu.branchPred.tage.bimodalAltMatchProviderWrong          139                       # Number of times TAGE Alt Match is the bimodal and it is the provider and the prediction is wrong (Count)
system.cpu.branchPred.tage.bimodalProviderWrong          982                       # Number of times there are no hits on the TAGE tables and the bimodal prediction is wrong (Count)
system.cpu.branchPred.tage.altMatchProviderWouldHaveHit          492                       # Number of times TAGE Longest Match is the provider, the prediction is wrong and Alt Match prediction was correct (Count)
system.cpu.branchPred.tage.longestMatchProviderWouldHaveHit          497                       # Number of times TAGE Alt Match is the provider, the prediction is wrong and Longest Match prediction was correct (Count)
system.cpu.branchPred.tage.longestMatchProvider::0            0                       # TAGE provider for longest match (Count)
system.cpu.branchPred.tage.longestMatchProvider::1        15235                       # TAGE provider for longest match (Count)
system.cpu.branchPred.tage.longestMatchProvider::2        14388                       # TAGE provider for longest match (Count)
system.cpu.branchPred.tage.longestMatchProvider::3        16584                       # TAGE provider for longest match (Count)
system.cpu.branchPred.tage.longestMatchProvider::4         4894                       # TAGE provider for longest match (Count)
system.cpu.branchPred.tage.longestMatchProvider::5        24565                       # TAGE provider for longest match (Count)
system.cpu.branchPred.tage.longestMatchProvider::6        28234                       # TAGE provider for longest match (Count)
system.cpu.branchPred.tage.longestMatchProvider::7        10023                       # TAGE provider for longest match (Count)
system.cpu.branchPred.tage.longestMatchProvider::8        18665                       # TAGE provider for longest match (Count)
system.cpu.branchPred.tage.longestMatchProvider::9        12651                       # TAGE provider for longest match (Count)
system.cpu.branchPred.tage.longestMatchProvider::10        21663                       # TAGE provider for longest match (Count)
system.cpu.branchPred.tage.longestMatchProvider::11        26370                       # TAGE provider for longest match (Count)
system.cpu.branchPred.tage.longestMatchProvider::12       200506                       # TAGE provider for longest match (Count)
system.cpu.branchPred.tage.altMatchProvider::0        28774                       # TAGE provider for alt match (Count)
system.cpu.branchPred.tage.altMatchProvider::1         2386                       # TAGE provider for alt match (Count)
system.cpu.branchPred.tage.altMatchProvider::2        23331                       # TAGE provider for alt match (Count)
system.cpu.branchPred.tage.altMatchProvider::3        15200                       # TAGE provider for alt match (Count)
system.cpu.branchPred.tage.altMatchProvider::4        21075                       # TAGE provider for alt match (Count)
system.cpu.branchPred.tage.altMatchProvider::5        16726                       # TAGE provider for alt match (Count)
system.cpu.branchPred.tage.altMatchProvider::6        28173                       # TAGE provider for alt match (Count)
system.cpu.branchPred.tage.altMatchProvider::7         5236                       # TAGE provider for alt match (Count)
system.cpu.branchPred.tage.altMatchProvider::8        18376                       # TAGE provider for alt match (Count)
system.cpu.branchPred.tage.altMatchProvider::9        11450                       # TAGE provider for alt match (Count)
system.cpu.branchPred.tage.altMatchProvider::10        22622                       # TAGE provider for alt match (Count)
system.cpu.branchPred.tage.altMatchProvider::11       200429                       # TAGE provider for alt match (Count)
system.cpu.branchPred.tage.altMatchProvider::12            0                       # TAGE provider for alt match (Count)
system.cpu.commit.commitSquashedInsts          219949                       # The number of squashed insts skipped by commit (Count)
system.cpu.commit.commitNonSpecStalls              24                       # The number of times commit has been forced to stall to communicate backwards (Count)
system.cpu.commit.branchMispredicts              5080                       # The number of times a branch was mispredicted (Count)
system.cpu.commit.numCommittedDist::samples      3941629                       # Number of insts commited each cycle (Count)
system.cpu.commit.numCommittedDist::mean     2.712853                       # Number of insts commited each cycle (Count)
system.cpu.commit.numCommittedDist::stdev     3.052653                       # Number of insts commited each cycle (Count)
system.cpu.commit.numCommittedDist::underflows            0      0.00%      0.00% # Number of insts commited each cycle (Count)
system.cpu.commit.numCommittedDist::0         1222754     31.02%     31.02% # Number of insts commited each cycle (Count)
system.cpu.commit.numCommittedDist::1          732633     18.59%     49.61% # Number of insts commited each cycle (Count)
system.cpu.commit.numCommittedDist::2          611846     15.52%     65.13% # Number of insts commited each cycle (Count)
system.cpu.commit.numCommittedDist::3          413251     10.48%     75.62% # Number of insts commited each cycle (Count)
system.cpu.commit.numCommittedDist::4           10275      0.26%     75.88% # Number of insts commited each cycle (Count)
system.cpu.commit.numCommittedDist::5           12291      0.31%     76.19% # Number of insts commited each cycle (Count)
system.cpu.commit.numCommittedDist::6            6290      0.16%     76.35% # Number of insts commited each cycle (Count)
system.cpu.commit.numCommittedDist::7          101625      2.58%     78.93% # Number of insts commited each cycle (Count)
system.cpu.commit.numCommittedDist::8          830664     21.07%    100.00% # Number of insts commited each cycle (Count)
system.cpu.commit.numCommittedDist::overflows            0      0.00%    100.00% # Number of insts commited each cycle (Count)
system.cpu.commit.numCommittedDist::min_value            0                       # Number of insts commited each cycle (Count)
system.cpu.commit.numCommittedDist::max_value            8                       # Number of insts commited each cycle (Count)
system.cpu.commit.numCommittedDist::total      3941629                       # Number of insts commited each cycle (Count)
system.cpu.commit.instsCommitted              6436803                       # Number of instructions committed (Count)
system.cpu.commit.opsCommitted               10693060                       # Number of ops (including micro ops) committed (Count)
system.cpu.commit.memRefs                     3058103                       # Number of memory references committed (Count)
system.cpu.commit.loads                       2243371                       # Number of loads committed (Count)
system.cpu.commit.amos                              0                       # Number of atomic instructions committed (Count)
system.cpu.commit.membars                           4                       # Number of memory barriers committed (Count)
system.cpu.commit.branches                     641846                       # Number of branches committed (Count)
system.cpu.commit.vectorInstructions                0                       # Number of committed Vector instructions. (Count)
system.cpu.commit.floating                       4869                       # Number of committed floating point instructions. (Count)
system.cpu.commit.integer                    10687938                       # Number of committed integer instructions. (Count)
system.cpu.commit.functionCalls                101100                       # Number of function calls committed. (Count)
system.cpu.commit.committedInstType_0::No_OpClass         1320      0.01%      0.01% # Class of committed instruction (Count)
system.cpu.commit.committedInstType_0::IntAlu      7328876     68.54%     68.55% # Class of committed instruction (Count)
system.cpu.commit.committedInstType_0::IntMult       300075      2.81%     71.36% # Class of committed instruction (Count)
system.cpu.commit.committedInstType_0::IntDiv         1538      0.01%     71.37% # Class of committed instruction (Count)
system.cpu.commit.committedInstType_0::FloatAdd           72      0.00%     71.37% # Class of committed instruction (Count)
system.cpu.commit.committedInstType_0::FloatCmp            0      0.00%     71.37% # Class of committed instruction (Count)
system.cpu.commit.committedInstType_0::FloatCvt           32      0.00%     71.37% # Class of committed instruction (Count)
system.cpu.commit.committedInstType_0::FloatMult            0      0.00%     71.37% # Class of committed instruction (Count)
system.cpu.commit.committedInstType_0::FloatMultAcc            0      0.00%     71.37% # Class of committed instruction (Count)
system.cpu.commit.committedInstType_0::FloatDiv            0      0.00%     71.37% # Class of committed instruction (Count)
system.cpu.commit.committedInstType_0::FloatMisc            0      0.00%     71.37% # Class of committed instruction (Count)
system.cpu.commit.committedInstType_0::FloatSqrt            0      0.00%     71.37% # Class of committed instruction (Count)
system.cpu.commit.committedInstType_0::SimdAdd          356      0.00%     71.38% # Class of committed instruction (Count)
system.cpu.commit.committedInstType_0::SimdAddAcc            0      0.00%     71.38% # Class of committed instruction (Count)
system.cpu.commit.committedInstType_0::SimdAlu          755      0.01%     71.38% # Class of committed instruction (Count)
system.cpu.commit.committedInstType_0::SimdCmp            0      0.00%     71.38% # Class of committed instruction (Count)
system.cpu.commit.committedInstType_0::SimdCvt          982      0.01%     71.39% # Class of committed instruction (Count)
system.cpu.commit.committedInstType_0::SimdMisc          801      0.01%     71.40% # Class of committed instruction (Count)
system.cpu.commit.committedInstType_0::SimdMult            0      0.00%     71.40% # Class of committed instruction (Count)
system.cpu.commit.committedInstType_0::SimdMultAcc            0      0.00%     71.40% # Class of committed instruction (Count)
system.cpu.commit.committedInstType_0::SimdShift          150      0.00%     71.40% # Class of committed instruction (Count)
system.cpu.commit.committedInstType_0::SimdShiftAcc            0      0.00%     71.40% # Class of committed instruction (Count)
system.cpu.commit.committedInstType_0::SimdDiv            0      0.00%     71.40% # Class of committed instruction (Count)
system.cpu.commit.committedInstType_0::SimdSqrt            0      0.00%     71.40% # Class of committed instruction (Count)
system.cpu.commit.committedInstType_0::SimdFloatAdd            0      0.00%     71.40% # Class of committed instruction (Count)
system.cpu.commit.committedInstType_0::SimdFloatAlu            0      0.00%     71.40% # Class of committed instruction (Count)
system.cpu.commit.committedInstType_0::SimdFloatCmp            0      0.00%     71.40% # Class of committed instruction (Count)
system.cpu.commit.committedInstType_0::SimdFloatCvt            0      0.00%     71.40% # Class of committed instruction (Count)
system.cpu.commit.committedInstType_0::SimdFloatDiv            0      0.00%     71.40% # Class of committed instruction (Count)
system.cpu.commit.committedInstType_0::SimdFloatMisc            0      0.00%     71.40% # Class of committed instruction (Count)
system.cpu.commit.committedInstType_0::SimdFloatMult            0      0.00%     71.40% # Class of committed instruction (Count)
system.cpu.commit.committedInstType_0::SimdFloatMultAcc            0      0.00%     71.40% # Class of committed instruction (Count)
system.cpu.commit.committedInstType_0::SimdFloatSqrt            0      0.00%     71.40% # Class of committed instruction (Count)
system.cpu.commit.committedInstType_0::SimdReduceAdd            0      0.00%     71.40% # Class of committed instruction (Count)
system.cpu.commit.committedInstType_0::SimdReduceAlu            0      0.00%     71.40% # Class of committed instruction (Count)
system.cpu.commit.committedInstType_0::SimdReduceCmp            0      0.00%     71.40% # Class of committed instruction (Count)
system.cpu.commit.committedInstType_0::SimdFloatReduceAdd            0      0.00%     71.40% # Class of committed instruction (Count)
system.cpu.commit.committedInstType_0::SimdFloatReduceCmp            0      0.00%     71.40% # Class of committed instruction (Count)
system.cpu.commit.committedInstType_0::SimdAes            0      0.00%     71.40% # Class of committed instruction (Count)
system.cpu.commit.committedInstType_0::SimdAesMix            0      0.00%     71.40% # Class of committed instruction (Count)
system.cpu.commit.committedInstType_0::SimdSha1Hash            0      0.00%     71.40% # Class of committed instruction (Count)
system.cpu.commit.committedInstType_0::SimdSha1Hash2            0      0.00%     71.40% # Class of committed instruction (Count)
system.cpu.commit.committedInstType_0::SimdSha256Hash            0      0.00%     71.40% # Class of committed instruction (Count)
system.cpu.commit.committedInstType_0::SimdSha256Hash2            0      0.00%     71.40% # Class of committed instruction (Count)
system.cpu.commit.committedInstType_0::SimdShaSigma2            0      0.00%     71.40% # Class of committed instruction (Count)
system.cpu.commit.committedInstType_0::SimdShaSigma3            0      0.00%     71.40% # Class of committed instruction (Count)
system.cpu.commit.committedInstType_0::SimdPredAlu            0      0.00%     71.40% # Class of committed instruction (Count)
system.cpu.commit.committedInstType_0::MemRead      2242277     20.97%     92.37% # Class of committed instruction (Count)
system.cpu.commit.committedInstType_0::MemWrite       814248      7.61%     99.99% # Class of committed instruction (Count)
system.cpu.commit.committedInstType_0::FloatMemRead         1094      0.01%    100.00% # Class of committed instruction (Count)
system.cpu.commit.committedInstType_0::FloatMemWrite          484      0.00%    100.00% # Class of committed instruction (Count)
system.cpu.commit.committedInstType_0::IprAccess            0      0.00%    100.00% # Class of committed instruction (Count)
system.cpu.commit.committedInstType_0::InstPrefetch            0      0.00%    100.00% # Class of committed instruction (Count)
system.cpu.commit.committedInstType_0::total     10693060                       # Class of committed instruction (Count)
system.cpu.commit.commitEligibleSamples        830664                       # number cycles where commit BW limit reached (Cycle)
system.cpu.dcache.demandHits::cpu.data        1180269                       # number of demand (read+write) hits (Count)
system.cpu.dcache.demandHits::total           1180269                       # number of demand (read+write) hits (Count)
system.cpu.dcache.overallHits::cpu.data       1180269                       # number of overall hits (Count)
system.cpu.dcache.overallHits::total          1180269                       # number of overall hits (Count)
system.cpu.dcache.demandMisses::cpu.data        41370                       # number of demand (read+write) misses (Count)
system.cpu.dcache.demandMisses::total           41370                       # number of demand (read+write) misses (Count)
system.cpu.dcache.overallMisses::cpu.data        41370                       # number of overall misses (Count)
system.cpu.dcache.overallMisses::total          41370                       # number of overall misses (Count)
system.cpu.dcache.demandMissLatency::cpu.data   2617095498                       # number of demand (read+write) miss ticks (Tick)
system.cpu.dcache.demandMissLatency::total   2617095498                       # number of demand (read+write) miss ticks (Tick)
system.cpu.dcache.overallMissLatency::cpu.data   2617095498                       # number of overall miss ticks (Tick)
system.cpu.dcache.overallMissLatency::total   2617095498                       # number of overall miss ticks (Tick)
system.cpu.dcache.demandAccesses::cpu.data      1221639                       # number of demand (read+write) accesses (Count)
system.cpu.dcache.demandAccesses::total       1221639                       # number of demand (read+write) accesses (Count)
system.cpu.dcache.overallAccesses::cpu.data      1221639                       # number of overall (read+write) accesses (Count)
system.cpu.dcache.overallAccesses::total      1221639                       # number of overall (read+write) accesses (Count)
system.cpu.dcache.demandMissRate::cpu.data     0.033864                       # miss rate for demand accesses (Ratio)
system.cpu.dcache.demandMissRate::total      0.033864                       # miss rate for demand accesses (Ratio)
system.cpu.dcache.overallMissRate::cpu.data     0.033864                       # miss rate for overall accesses (Ratio)
system.cpu.dcache.overallMissRate::total     0.033864                       # miss rate for overall accesses (Ratio)
system.cpu.dcache.demandAvgMissLatency::cpu.data 63260.708194                       # average overall miss latency in ticks ((Tick/Count))
system.cpu.dcache.demandAvgMissLatency::total 63260.708194                       # average overall miss latency in ticks ((Tick/Count))
system.cpu.dcache.overallAvgMissLatency::cpu.data 63260.708194                       # average overall miss latency ((Tick/Count))
system.cpu.dcache.overallAvgMissLatency::total 63260.708194                       # average overall miss latency ((Tick/Count))
system.cpu.dcache.blockedCycles::no_mshrs        23676                       # number of cycles access was blocked (Cycle)
system.cpu.dcache.blockedCycles::no_targets          137                       # number of cycles access was blocked (Cycle)
system.cpu.dcache.blockedCauses::no_mshrs          427                       # number of times access was blocked (Count)
system.cpu.dcache.blockedCauses::no_targets            2                       # number of times access was blocked (Count)
system.cpu.dcache.avgBlocked::no_mshrs      55.447307                       # average number of cycles each access was blocked ((Cycle/Count))
system.cpu.dcache.avgBlocked::no_targets    68.500000                       # average number of cycles each access was blocked ((Cycle/Count))
system.cpu.dcache.writebacks::writebacks        10855                       # number of writebacks (Count)
system.cpu.dcache.writebacks::total             10855                       # number of writebacks (Count)
system.cpu.dcache.demandMshrHits::cpu.data        26612                       # number of demand (read+write) MSHR hits (Count)
system.cpu.dcache.demandMshrHits::total         26612                       # number of demand (read+write) MSHR hits (Count)
system.cpu.dcache.overallMshrHits::cpu.data        26612                       # number of overall MSHR hits (Count)
system.cpu.dcache.overallMshrHits::total        26612                       # number of overall MSHR hits (Count)
system.cpu.dcache.demandMshrMisses::cpu.data        14758                       # number of demand (read+write) MSHR misses (Count)
system.cpu.dcache.demandMshrMisses::total        14758                       # number of demand (read+write) MSHR misses (Count)
system.cpu.dcache.overallMshrMisses::cpu.data        14758                       # number of overall MSHR misses (Count)
system.cpu.dcache.overallMshrMisses::total        14758                       # number of overall MSHR misses (Count)
system.cpu.dcache.demandMshrMissLatency::cpu.data    854877498                       # number of demand (read+write) MSHR miss ticks (Tick)
system.cpu.dcache.demandMshrMissLatency::total    854877498                       # number of demand (read+write) MSHR miss ticks (Tick)
system.cpu.dcache.overallMshrMissLatency::cpu.data    854877498                       # number of overall MSHR miss ticks (Tick)
system.cpu.dcache.overallMshrMissLatency::total    854877498                       # number of overall MSHR miss ticks (Tick)
system.cpu.dcache.demandMshrMissRate::cpu.data     0.012080                       # mshr miss ratio for demand accesses (Ratio)
system.cpu.dcache.demandMshrMissRate::total     0.012080                       # mshr miss ratio for demand accesses (Ratio)
system.cpu.dcache.overallMshrMissRate::cpu.data     0.012080                       # mshr miss ratio for overall accesses (Ratio)
system.cpu.dcache.overallMshrMissRate::total     0.012080                       # mshr miss ratio for overall accesses (Ratio)
system.cpu.dcache.demandAvgMshrMissLatency::cpu.data 57926.378778                       # average overall mshr miss latency ((Tick/Count))
system.cpu.dcache.demandAvgMshrMissLatency::total 57926.378778                       # average overall mshr miss latency ((Tick/Count))
system.cpu.dcache.overallAvgMshrMissLatency::cpu.data 57926.378778                       # average overall mshr miss latency ((Tick/Count))
system.cpu.dcache.overallAvgMshrMissLatency::total 57926.378778                       # average overall mshr miss latency ((Tick/Count))
system.cpu.dcache.replacements                  14692                       # number of replacements (Count)
system.cpu.dcache.LockedRMWReadReq.hits::cpu.data            2                       # number of LockedRMWReadReq hits (Count)
system.cpu.dcache.LockedRMWReadReq.hits::total            2                       # number of LockedRMWReadReq hits (Count)
system.cpu.dcache.LockedRMWReadReq.accesses::cpu.data            2                       # number of LockedRMWReadReq accesses(hits+misses) (Count)
system.cpu.dcache.LockedRMWReadReq.accesses::total            2                       # number of LockedRMWReadReq accesses(hits+misses) (Count)
system.cpu.dcache.LockedRMWReadReq.mshrMissLatency::cpu.data         8000                       # number of LockedRMWReadReq MSHR miss ticks (Tick)
system.cpu.dcache.LockedRMWReadReq.mshrMissLatency::total         8000                       # number of LockedRMWReadReq MSHR miss ticks (Tick)
system.cpu.dcache.LockedRMWReadReq.avgMshrMissLatency::cpu.data          inf                       # average LockedRMWReadReq mshr miss latency ((Tick/Count))
system.cpu.dcache.LockedRMWReadReq.avgMshrMissLatency::total          inf                       # average LockedRMWReadReq mshr miss latency ((Tick/Count))
system.cpu.dcache.LockedRMWWriteReq.hits::cpu.data            2                       # number of LockedRMWWriteReq hits (Count)
system.cpu.dcache.LockedRMWWriteReq.hits::total            2                       # number of LockedRMWWriteReq hits (Count)
system.cpu.dcache.LockedRMWWriteReq.accesses::cpu.data            2                       # number of LockedRMWWriteReq accesses(hits+misses) (Count)
system.cpu.dcache.LockedRMWWriteReq.accesses::total            2                       # number of LockedRMWWriteReq accesses(hits+misses) (Count)
system.cpu.dcache.ReadReq.hits::cpu.data       372760                       # number of ReadReq hits (Count)
system.cpu.dcache.ReadReq.hits::total          372760                       # number of ReadReq hits (Count)
system.cpu.dcache.ReadReq.misses::cpu.data        34146                       # number of ReadReq misses (Count)
system.cpu.dcache.ReadReq.misses::total         34146                       # number of ReadReq misses (Count)
system.cpu.dcache.ReadReq.missLatency::cpu.data   2237667500                       # number of ReadReq miss ticks (Tick)
system.cpu.dcache.ReadReq.missLatency::total   2237667500                       # number of ReadReq miss ticks (Tick)
system.cpu.dcache.ReadReq.accesses::cpu.data       406906                       # number of ReadReq accesses(hits+misses) (Count)
system.cpu.dcache.ReadReq.accesses::total       406906                       # number of ReadReq accesses(hits+misses) (Count)
system.cpu.dcache.ReadReq.missRate::cpu.data     0.083916                       # miss rate for ReadReq accesses (Ratio)
system.cpu.dcache.ReadReq.missRate::total     0.083916                       # miss rate for ReadReq accesses (Ratio)
system.cpu.dcache.ReadReq.avgMissLatency::cpu.data 65532.346395                       # average ReadReq miss latency ((Tick/Count))
system.cpu.dcache.ReadReq.avgMissLatency::total 65532.346395                       # average ReadReq miss latency ((Tick/Count))
system.cpu.dcache.ReadReq.mshrHits::cpu.data        26603                       # number of ReadReq MSHR hits (Count)
system.cpu.dcache.ReadReq.mshrHits::total        26603                       # number of ReadReq MSHR hits (Count)
system.cpu.dcache.ReadReq.mshrMisses::cpu.data         7543                       # number of ReadReq MSHR misses (Count)
system.cpu.dcache.ReadReq.mshrMisses::total         7543                       # number of ReadReq MSHR misses (Count)
system.cpu.dcache.ReadReq.mshrMissLatency::cpu.data    483005000                       # number of ReadReq MSHR miss ticks (Tick)
system.cpu.dcache.ReadReq.mshrMissLatency::total    483005000                       # number of ReadReq MSHR miss ticks (Tick)
system.cpu.dcache.ReadReq.mshrMissRate::cpu.data     0.018537                       # mshr miss rate for ReadReq accesses (Ratio)
system.cpu.dcache.ReadReq.mshrMissRate::total     0.018537                       # mshr miss rate for ReadReq accesses (Ratio)
system.cpu.dcache.ReadReq.avgMshrMissLatency::cpu.data 64033.541031                       # average ReadReq mshr miss latency ((Tick/Count))
system.cpu.dcache.ReadReq.avgMshrMissLatency::total 64033.541031                       # average ReadReq mshr miss latency ((Tick/Count))
system.cpu.dcache.WriteReq.hits::cpu.data       807509                       # number of WriteReq hits (Count)
system.cpu.dcache.WriteReq.hits::total         807509                       # number of WriteReq hits (Count)
system.cpu.dcache.WriteReq.misses::cpu.data         7224                       # number of WriteReq misses (Count)
system.cpu.dcache.WriteReq.misses::total         7224                       # number of WriteReq misses (Count)
system.cpu.dcache.WriteReq.missLatency::cpu.data    379427998                       # number of WriteReq miss ticks (Tick)
system.cpu.dcache.WriteReq.missLatency::total    379427998                       # number of WriteReq miss ticks (Tick)
system.cpu.dcache.WriteReq.accesses::cpu.data       814733                       # number of WriteReq accesses(hits+misses) (Count)
system.cpu.dcache.WriteReq.accesses::total       814733                       # number of WriteReq accesses(hits+misses) (Count)
system.cpu.dcache.WriteReq.missRate::cpu.data     0.008867                       # miss rate for WriteReq accesses (Ratio)
system.cpu.dcache.WriteReq.missRate::total     0.008867                       # miss rate for WriteReq accesses (Ratio)
system.cpu.dcache.WriteReq.avgMissLatency::cpu.data 52523.255537                       # average WriteReq miss latency ((Tick/Count))
system.cpu.dcache.WriteReq.avgMissLatency::total 52523.255537                       # average WriteReq miss latency ((Tick/Count))
system.cpu.dcache.WriteReq.mshrHits::cpu.data            9                       # number of WriteReq MSHR hits (Count)
system.cpu.dcache.WriteReq.mshrHits::total            9                       # number of WriteReq MSHR hits (Count)
system.cpu.dcache.WriteReq.mshrMisses::cpu.data         7215                       # number of WriteReq MSHR misses (Count)
system.cpu.dcache.WriteReq.mshrMisses::total         7215                       # number of WriteReq MSHR misses (Count)
system.cpu.dcache.WriteReq.mshrMissLatency::cpu.data    371872498                       # number of WriteReq MSHR miss ticks (Tick)
system.cpu.dcache.WriteReq.mshrMissLatency::total    371872498                       # number of WriteReq MSHR miss ticks (Tick)
system.cpu.dcache.WriteReq.mshrMissRate::cpu.data     0.008856                       # mshr miss rate for WriteReq accesses (Ratio)
system.cpu.dcache.WriteReq.mshrMissRate::total     0.008856                       # mshr miss rate for WriteReq accesses (Ratio)
system.cpu.dcache.WriteReq.avgMshrMissLatency::cpu.data 51541.579764                       # average WriteReq mshr miss latency ((Tick/Count))
system.cpu.dcache.WriteReq.avgMshrMissLatency::total 51541.579764                       # average WriteReq mshr miss latency ((Tick/Count))
system.cpu.dcache.power_state.pwrStateResidencyTicks::UNDEFINED   2090882500                       # Cumulative time (in ticks) in various power states (Tick)
system.cpu.dcache.tags.tagsInUse            63.938501                       # Average ticks per tags in use ((Tick/Count))
system.cpu.dcache.tags.totalRefs              1195032                       # Total number of references to valid blocks. (Count)
system.cpu.dcache.tags.sampledRefs              14756                       # Sample count of references to valid blocks. (Count)
system.cpu.dcache.tags.avgRefs              80.986175                       # Average number of references to valid blocks. ((Count/Count))
system.cpu.dcache.tags.warmupTick             8497000                       # The tick when the warmup percentage was hit. (Tick)
system.cpu.dcache.tags.occupancies::cpu.data    63.938501                       # Average occupied blocks per tick, per requestor ((Count/Tick))
system.cpu.dcache.tags.avgOccs::cpu.data     0.999039                       # Average percentage of cache occupancy ((Ratio/Tick))
system.cpu.dcache.tags.avgOccs::total        0.999039                       # Average percentage of cache occupancy ((Ratio/Tick))
system.cpu.dcache.tags.occupanciesTaskId::1024           64                       # Occupied blocks per task id (Count)
system.cpu.dcache.tags.ageTaskId_1024::0           47                       # Occupied blocks per task id, per block age (Count)
system.cpu.dcache.tags.ageTaskId_1024::1           17                       # Occupied blocks per task id, per block age (Count)
system.cpu.dcache.tags.ratioOccsTaskId::1024            1                       # Ratio of occupied blocks and all blocks, per task id (Ratio)
system.cpu.dcache.tags.tagAccesses            2458042                       # Number of tag accesses (Count)
system.cpu.dcache.tags.dataAccesses           2458042                       # Number of data accesses (Count)
system.cpu.dcache.tags.power_state.pwrStateResidencyTicks::UNDEFINED   2090882500                       # Cumulative time (in ticks) in various power states (Tick)
system.cpu.decode.idleCycles                   503351                       # Number of cycles decode is idle (Cycle)
system.cpu.decode.blockedCycles               1978871                       # Number of cycles decode is blocked (Cycle)
system.cpu.decode.runCycles                   1048257                       # Number of cycles decode is running (Cycle)
system.cpu.decode.unblockCycles                437834                       # Number of cycles decode is unblocking (Cycle)
system.cpu.decode.squashCycles                   5389                       # Number of cycles decode is squashing (Cycle)
system.cpu.decode.branchResolved               479043                       # Number of times decode resolved a branch (Count)
system.cpu.decode.branchMispred                   629                       # Number of times decode detected a branch misprediction (Count)
system.cpu.decode.decodedInsts               10958197                       # Number of instructions handled by decode (Count)
system.cpu.decode.squashedInsts                  3036                       # Number of squashed instructions handled by decode (Count)
system.cpu.fetch.icacheStallCycles            1007409                       # Number of cycles fetch is stalled on an Icache miss (Cycle)
system.cpu.fetch.insts                        6624565                       # Number of instructions fetch has processed (Count)
system.cpu.fetch.branches                      680647                       # Number of branches that fetch encountered (Count)
system.cpu.fetch.predictedBranches             584002                       # Number of branches that fetch has predicted taken (Count)
system.cpu.fetch.cycles                       2956890                       # Number of cycles fetch has run and was not squashing or blocked (Cycle)
system.cpu.fetch.squashCycles                   12028                       # Number of cycles fetch has spent squashing (Cycle)
system.cpu.fetch.miscStallCycles                  423                       # Number of cycles fetch has spent waiting on interrupts, or bad addresses, or out of MSHRs (Cycle)
system.cpu.fetch.pendingTrapStallCycles          2940                       # Number of stall cycles due to pending traps (Cycle)
system.cpu.fetch.icacheWaitRetryStallCycles           26                       # Number of stall cycles due to full MSHR (Cycle)
system.cpu.fetch.cacheLines                    897420                       # Number of cache lines fetched (Count)
system.cpu.fetch.icacheSquashes                  2092                       # Number of outstanding Icache misses that were squashed (Count)
system.cpu.fetch.nisnDist::samples            3973702                       # Number of instructions fetched each cycle (Total) (Count)
system.cpu.fetch.nisnDist::mean              2.775792                       # Number of instructions fetched each cycle (Total) (Count)
system.cpu.fetch.nisnDist::stdev             3.395850                       # Number of instructions fetched each cycle (Total) (Count)
system.cpu.fetch.nisnDist::underflows               0      0.00%      0.00% # Number of instructions fetched each cycle (Total) (Count)
system.cpu.fetch.nisnDist::0                  2092936     52.67%     52.67% # Number of instructions fetched each cycle (Total) (Count)
system.cpu.fetch.nisnDist::1                   214864      5.41%     58.08% # Number of instructions fetched each cycle (Total) (Count)
system.cpu.fetch.nisnDist::2                    53545      1.35%     59.42% # Number of instructions fetched each cycle (Total) (Count)
system.cpu.fetch.nisnDist::3                   196533      4.95%     64.37% # Number of instructions fetched each cycle (Total) (Count)
system.cpu.fetch.nisnDist::4                    10984      0.28%     64.65% # Number of instructions fetched each cycle (Total) (Count)
system.cpu.fetch.nisnDist::5                   204920      5.16%     69.80% # Number of instructions fetched each cycle (Total) (Count)
system.cpu.fetch.nisnDist::6                   194555      4.90%     74.70% # Number of instructions fetched each cycle (Total) (Count)
system.cpu.fetch.nisnDist::7                   160170      4.03%     78.73% # Number of instructions fetched each cycle (Total) (Count)
system.cpu.fetch.nisnDist::8                   845195     21.27%    100.00% # Number of instructions fetched each cycle (Total) (Count)
system.cpu.fetch.nisnDist::overflows                0      0.00%    100.00% # Number of instructions fetched each cycle (Total) (Count)
system.cpu.fetch.nisnDist::min_value                0                       # Number of instructions fetched each cycle (Total) (Count)
system.cpu.fetch.nisnDist::max_value                8                       # Number of instructions fetched each cycle (Total) (Count)
system.cpu.fetch.nisnDist::total              3973702                       # Number of instructions fetched each cycle (Total) (Count)
system.cpu.fetch.branchRate                  0.162765                       # Number of branch fetches per cycle (Ratio)
system.cpu.fetch.rate                        1.584155                       # Number of inst fetches per cycle ((Count/Cycle))
system.cpu.icache.demandHits::cpu.inst         893469                       # number of demand (read+write) hits (Count)
system.cpu.icache.demandHits::total            893469                       # number of demand (read+write) hits (Count)
system.cpu.icache.overallHits::cpu.inst        893469                       # number of overall hits (Count)
system.cpu.icache.overallHits::total           893469                       # number of overall hits (Count)
system.cpu.icache.demandMisses::cpu.inst         3951                       # number of demand (read+write) misses (Count)
system.cpu.icache.demandMisses::total            3951                       # number of demand (read+write) misses (Count)
system.cpu.icache.overallMisses::cpu.inst         3951                       # number of overall misses (Count)
system.cpu.icache.overallMisses::total           3951                       # number of overall misses (Count)
system.cpu.icache.demandMissLatency::cpu.inst    234198499                       # number of demand (read+write) miss ticks (Tick)
system.cpu.icache.demandMissLatency::total    234198499                       # number of demand (read+write) miss ticks (Tick)
system.cpu.icache.overallMissLatency::cpu.inst    234198499                       # number of overall miss ticks (Tick)
system.cpu.icache.overallMissLatency::total    234198499                       # number of overall miss ticks (Tick)
system.cpu.icache.demandAccesses::cpu.inst       897420                       # number of demand (read+write) accesses (Count)
system.cpu.icache.demandAccesses::total        897420                       # number of demand (read+write) accesses (Count)
system.cpu.icache.overallAccesses::cpu.inst       897420                       # number of overall (read+write) accesses (Count)
system.cpu.icache.overallAccesses::total       897420                       # number of overall (read+write) accesses (Count)
system.cpu.icache.demandMissRate::cpu.inst     0.004403                       # miss rate for demand accesses (Ratio)
system.cpu.icache.demandMissRate::total      0.004403                       # miss rate for demand accesses (Ratio)
system.cpu.icache.overallMissRate::cpu.inst     0.004403                       # miss rate for overall accesses (Ratio)
system.cpu.icache.overallMissRate::total     0.004403                       # miss rate for overall accesses (Ratio)
system.cpu.icache.demandAvgMissLatency::cpu.inst 59275.752721                       # average overall miss latency in ticks ((Tick/Count))
system.cpu.icache.demandAvgMissLatency::total 59275.752721                       # average overall miss latency in ticks ((Tick/Count))
system.cpu.icache.overallAvgMissLatency::cpu.inst 59275.752721                       # average overall miss latency ((Tick/Count))
system.cpu.icache.overallAvgMissLatency::total 59275.752721                       # average overall miss latency ((Tick/Count))
system.cpu.icache.blockedCycles::no_mshrs          380                       # number of cycles access was blocked (Cycle)
system.cpu.icache.blockedCycles::no_targets            0                       # number of cycles access was blocked (Cycle)
system.cpu.icache.blockedCauses::no_mshrs           10                       # number of times access was blocked (Count)
system.cpu.icache.blockedCauses::no_targets            0                       # number of times access was blocked (Count)
system.cpu.icache.avgBlocked::no_mshrs             38                       # average number of cycles each access was blocked ((Cycle/Count))
system.cpu.icache.avgBlocked::no_targets          nan                       # average number of cycles each access was blocked ((Cycle/Count))
system.cpu.icache.writebacks::writebacks            1                       # number of writebacks (Count)
system.cpu.icache.writebacks::total                 1                       # number of writebacks (Count)
system.cpu.icache.demandMshrHits::cpu.inst          611                       # number of demand (read+write) MSHR hits (Count)
system.cpu.icache.demandMshrHits::total           611                       # number of demand (read+write) MSHR hits (Count)
system.cpu.icache.overallMshrHits::cpu.inst          611                       # number of overall MSHR hits (Count)
system.cpu.icache.overallMshrHits::total          611                       # number of overall MSHR hits (Count)
system.cpu.icache.demandMshrMisses::cpu.inst         3340                       # number of demand (read+write) MSHR misses (Count)
system.cpu.icache.demandMshrMisses::total         3340                       # number of demand (read+write) MSHR misses (Count)
system.cpu.icache.overallMshrMisses::cpu.inst         3340                       # number of overall MSHR misses (Count)
system.cpu.icache.overallMshrMisses::total         3340                       # number of overall MSHR misses (Count)
system.cpu.icache.demandMshrMissLatency::cpu.inst    197187500                       # number of demand (read+write) MSHR miss ticks (Tick)
system.cpu.icache.demandMshrMissLatency::total    197187500                       # number of demand (read+write) MSHR miss ticks (Tick)
system.cpu.icache.overallMshrMissLatency::cpu.inst    197187500                       # number of overall MSHR miss ticks (Tick)
system.cpu.icache.overallMshrMissLatency::total    197187500                       # number of overall MSHR miss ticks (Tick)
system.cpu.icache.demandMshrMissRate::cpu.inst     0.003722                       # mshr miss ratio for demand accesses (Ratio)
system.cpu.icache.demandMshrMissRate::total     0.003722                       # mshr miss ratio for demand accesses (Ratio)
system.cpu.icache.overallMshrMissRate::cpu.inst     0.003722                       # mshr miss ratio for overall accesses (Ratio)
system.cpu.icache.overallMshrMissRate::total     0.003722                       # mshr miss ratio for overall accesses (Ratio)
system.cpu.icache.demandAvgMshrMissLatency::cpu.inst 59038.173653                       # average overall mshr miss latency ((Tick/Count))
system.cpu.icache.demandAvgMshrMissLatency::total 59038.173653                       # average overall mshr miss latency ((Tick/Count))
system.cpu.icache.overallAvgMshrMissLatency::cpu.inst 59038.173653                       # average overall mshr miss latency ((Tick/Count))
system.cpu.icache.overallAvgMshrMissLatency::total 59038.173653                       # average overall mshr miss latency ((Tick/Count))
system.cpu.icache.replacements                   3273                       # number of replacements (Count)
system.cpu.icache.ReadReq.hits::cpu.inst       893469                       # number of ReadReq hits (Count)
system.cpu.icache.ReadReq.hits::total          893469                       # number of ReadReq hits (Count)
system.cpu.icache.ReadReq.misses::cpu.inst         3951                       # number of ReadReq misses (Count)
system.cpu.icache.ReadReq.misses::total          3951                       # number of ReadReq misses (Count)
system.cpu.icache.ReadReq.missLatency::cpu.inst    234198499                       # number of ReadReq miss ticks (Tick)
system.cpu.icache.ReadReq.missLatency::total    234198499                       # number of ReadReq miss ticks (Tick)
system.cpu.icache.ReadReq.accesses::cpu.inst       897420                       # number of ReadReq accesses(hits+misses) (Count)
system.cpu.icache.ReadReq.accesses::total       897420                       # number of ReadReq accesses(hits+misses) (Count)
system.cpu.icache.ReadReq.missRate::cpu.inst     0.004403                       # miss rate for ReadReq accesses (Ratio)
system.cpu.icache.ReadReq.missRate::total     0.004403                       # miss rate for ReadReq accesses (Ratio)
system.cpu.icache.ReadReq.avgMissLatency::cpu.inst 59275.752721                       # average ReadReq miss latency ((Tick/Count))
system.cpu.icache.ReadReq.avgMissLatency::total 59275.752721                       # average ReadReq miss latency ((Tick/Count))
system.cpu.icache.ReadReq.mshrHits::cpu.inst          611                       # number of ReadReq MSHR hits (Count)
system.cpu.icache.ReadReq.mshrHits::total          611                       # number of ReadReq MSHR hits (Count)
system.cpu.icache.ReadReq.mshrMisses::cpu.inst         3340                       # number of ReadReq MSHR misses (Count)
system.cpu.icache.ReadReq.mshrMisses::total         3340                       # number of ReadReq MSHR misses (Count)
system.cpu.icache.ReadReq.mshrMissLatency::cpu.inst    197187500                       # number of ReadReq MSHR miss ticks (Tick)
system.cpu.icache.ReadReq.mshrMissLatency::total    197187500                       # number of ReadReq MSHR miss ticks (Tick)
system.cpu.icache.ReadReq.mshrMissRate::cpu.inst     0.003722                       # mshr miss rate for ReadReq accesses (Ratio)
system.cpu.icache.ReadReq.mshrMissRate::total     0.003722                       # mshr miss rate for ReadReq accesses (Ratio)
system.cpu.icache.ReadReq.avgMshrMissLatency::cpu.inst 59038.173653                       # average ReadReq mshr miss latency ((Tick/Count))
system.cpu.icache.ReadReq.avgMshrMissLatency::total 59038.173653                       # average ReadReq mshr miss latency ((Tick/Count))
system.cpu.icache.power_state.pwrStateResidencyTicks::UNDEFINED   2090882500                       # Cumulative time (in ticks) in various power states (Tick)
system.cpu.icache.tags.tagsInUse            63.874288                       # Average ticks per tags in use ((Tick/Count))
system.cpu.icache.tags.totalRefs               896808                       # Total number of references to valid blocks. (Count)
system.cpu.icache.tags.sampledRefs               3339                       # Sample count of references to valid blocks. (Count)
system.cpu.icache.tags.avgRefs             268.585804                       # Average number of references to valid blocks. ((Count/Count))
system.cpu.icache.tags.warmupTick            10584500                       # The tick when the warmup percentage was hit. (Tick)
system.cpu.icache.tags.occupancies::cpu.inst    63.874288                       # Average occupied blocks per tick, per requestor ((Count/Tick))
system.cpu.icache.tags.avgOccs::cpu.inst     0.998036                       # Average percentage of cache occupancy ((Ratio/Tick))
system.cpu.icache.tags.avgOccs::total        0.998036                       # Average percentage of cache occupancy ((Ratio/Tick))
system.cpu.icache.tags.occupanciesTaskId::1024           64                       # Occupied blocks per task id (Count)
system.cpu.icache.tags.ageTaskId_1024::0           63                       # Occupied blocks per task id, per block age (Count)
system.cpu.icache.tags.ageTaskId_1024::1            1                       # Occupied blocks per task id, per block age (Count)
system.cpu.icache.tags.ratioOccsTaskId::1024            1                       # Ratio of occupied blocks and all blocks, per task id (Ratio)
system.cpu.icache.tags.tagAccesses            1798179                       # Number of tag accesses (Count)
system.cpu.icache.tags.dataAccesses           1798179                       # Number of data accesses (Count)
system.cpu.icache.tags.power_state.pwrStateResidencyTicks::UNDEFINED   2090882500                       # Cumulative time (in ticks) in various power states (Tick)
system.cpu.iew.idleCycles                           0                       # Number of cycles IEW is idle (Cycle)
system.cpu.iew.squashCycles                      5389                       # Number of cycles IEW is squashing (Cycle)
system.cpu.iew.blockCycles                      53756                       # Number of cycles IEW is blocking (Cycle)
system.cpu.iew.unblockCycles                     3498                       # Number of cycles IEW is unblocking (Cycle)
system.cpu.iew.dispatchedInsts               10914853                       # Number of instructions dispatched to IQ (Count)
system.cpu.iew.dispSquashedInsts                  324                       # Number of squashed instructions skipped by dispatch (Count)
system.cpu.iew.dispLoadInsts                  2271717                       # Number of dispatched load instructions (Count)
system.cpu.iew.dispStoreInsts                  822555                       # Number of dispatched store instructions (Count)
system.cpu.iew.dispNonSpecInsts                    62                       # Number of dispatched non-speculative instructions (Count)
system.cpu.iew.iqFullEvents                       367                       # Number of times the IQ has become full, causing a stall (Count)
system.cpu.iew.lsqFullEvents                     2959                       # Number of times the LSQ has become full, causing a stall (Count)
system.cpu.iew.memOrderViolationEvents            168                       # Number of memory order violations (Count)
system.cpu.iew.predictedTakenIncorrect           2375                       # Number of branches that were predicted taken incorrectly (Count)
system.cpu.iew.predictedNotTakenIncorrect         3424                       # Number of branches that were predicted not taken incorrectly (Count)
system.cpu.iew.branchMispredicts                 5799                       # Number of branch mispredicts detected at execute (Count)
system.cpu.iew.instsToCommit                 10840869                       # Cumulative count of insts sent to commit (Count)
system.cpu.iew.writebackCount                10838667                       # Cumulative count of insts written-back (Count)
system.cpu.iew.producerInst                   8533696                       # Number of instructions producing a value (Count)
system.cpu.iew.consumerInst                  12268329                       # Number of instructions consuming a value (Count)
system.cpu.iew.wbRate                        2.591887                       # Insts written-back per cycle ((Count/Cycle))
system.cpu.iew.wbFanout                      0.695587                       # Average fanout of values written-back ((Count/Count))
system.cpu.interrupts.clk_domain.clock           8000                       # Clock period in ticks (Tick)
system.cpu.lsq0.forwLoads                     1855430                       # Number of loads that had data forwarded from stores (Count)
system.cpu.lsq0.squashedLoads                   28346                       # Number of loads squashed (Count)
[...]
system.mem_ctrls.dram.numReads::cpu.inst         2380                       # Number of read requests responded to by this memory (Count)
system.mem_ctrls.dram.numReads::cpu.data        10998                       # Number of read requests responded to by this memory (Count)
system.mem_ctrls.dram.numReads::total           13378                       # Number of read requests responded to by this memory (Count)
system.mem_ctrls.dram.numWrites::writebacks         7942                       # Number of write requests responded to by this memory (Count)
system.mem_ctrls.dram.numWrites::total           7942                       # Number of write requests responded to by this memory (Count)
system.mem_ctrls.dram.bwRead::cpu.inst       72849622                       # Total read bandwidth from this memory ((Byte/Second))
system.mem_ctrls.dram.bwRead::cpu.data      336638716                       # Total read bandwidth from this memory ((Byte/Second))
system.mem_ctrls.dram.bwRead::total         409488338                       # Total read bandwidth from this memory ((Byte/Second))
system.mem_ctrls.dram.bwInstRead::cpu.inst     72849622                       # Instruction read bandwidth from this memory ((Byte/Second))
system.mem_ctrls.dram.bwInstRead::total      72849622                       # Instruction read bandwidth from this memory ((Byte/Second))
system.mem_ctrls.dram.bwWrite::writebacks    243097352                       # Write bandwidth from this memory ((Byte/Second))
system.mem_ctrls.dram.bwWrite::total        243097352                       # Write bandwidth from this memory ((Byte/Second))
system.mem_ctrls.dram.bwTotal::writebacks    243097352                       # Total bandwidth to/from this memory ((Byte/Second))
system.mem_ctrls.dram.bwTotal::cpu.inst      72849622                       # Total bandwidth to/from this memory ((Byte/Second))
system.mem_ctrls.dram.bwTotal::cpu.data     336638716                       # Total bandwidth to/from this memory ((Byte/Second))
system.mem_ctrls.dram.bwTotal::total        652585690                       # Total bandwidth to/from this memory ((Byte/Second))
system.mem_ctrls.dram.readBursts                12982                       # Number of DRAM read bursts (Count)
system.mem_ctrls.dram.writeBursts                7922                       # Number of DRAM write bursts (Count)
system.mem_ctrls.dram.perBankRdBursts::0          519                       # Per bank write bursts (Count)
system.mem_ctrls.dram.perBankRdBursts::1          378                       # Per bank write bursts (Count)
system.mem_ctrls.dram.perBankRdBursts::2          353                       # Per bank write bursts (Count)
system.mem_ctrls.dram.perBankRdBursts::3          239                       # Per bank write bursts (Count)
system.mem_ctrls.dram.perBankRdBursts::4          316                       # Per bank write bursts (Count)
system.mem_ctrls.dram.perBankRdBursts::5          385                       # Per bank write bursts (Count)
system.mem_ctrls.dram.perBankRdBursts::6          591                       # Per bank write bursts (Count)
system.mem_ctrls.dram.perBankRdBursts::7          226                       # Per bank write bursts (Count)
system.mem_ctrls.dram.perBankRdBursts::8          986                       # Per bank write bursts (Count)
system.mem_ctrls.dram.perBankRdBursts::9         2044                       # Per bank write bursts (Count)
system.mem_ctrls.dram.perBankRdBursts::10         1815                       # Per bank write bursts (Count)
system.mem_ctrls.dram.perBankRdBursts::11         1641                       # Per bank write bursts (Count)
system.mem_ctrls.dram.perBankRdBursts::12         1442                       # Per bank write bursts (Count)
system.mem_ctrls.dram.perBankRdBursts::13         1104                       # Per bank write bursts (Count)
system.mem_ctrls.dram.perBankRdBursts::14          508                       # Per bank write bursts (Count)
system.mem_ctrls.dram.perBankRdBursts::15          435                       # Per bank write bursts (Count)
system.mem_ctrls.dram.perBankWrBursts::0           45                       # Per bank write bursts (Count)
system.mem_ctrls.dram.perBankWrBursts::1           43                       # Per bank write bursts (Count)
system.mem_ctrls.dram.perBankWrBursts::2           63                       # Per bank write bursts (Count)
system.mem_ctrls.dram.perBankWrBursts::3           58                       # Per bank write bursts (Count)
system.mem_ctrls.dram.perBankWrBursts::4            0                       # Per bank write bursts (Count)
system.mem_ctrls.dram.perBankWrBursts::5          132                       # Per bank write bursts (Count)
system.mem_ctrls.dram.perBankWrBursts::6          303                       # Per bank write bursts (Count)
system.mem_ctrls.dram.perBankWrBursts::7           14                       # Per bank write bursts (Count)
system.mem_ctrls.dram.perBankWrBursts::8          678                       # Per bank write bursts (Count)
system.mem_ctrls.dram.perBankWrBursts::9         1635                       # Per bank write bursts (Count)
system.mem_ctrls.dram.perBankWrBursts::10         1579                       # Per bank write bursts (Count)
system.mem_ctrls.dram.perBankWrBursts::11         1269                       # Per bank write bursts (Count)
system.mem_ctrls.dram.perBankWrBursts::12         1279                       # Per bank write bursts (Count)
system.mem_ctrls.dram.perBankWrBursts::13          667                       # Per bank write bursts (Count)
system.mem_ctrls.dram.perBankWrBursts::14          157                       # Per bank write bursts (Count)
system.mem_ctrls.dram.perBankWrBursts::15            0                       # Per bank write bursts (Count)
system.mem_ctrls.dram.totQLat               123704750                       # Total ticks spent queuing (Tick)
system.mem_ctrls.dram.totBusLat              64910000                       # Total ticks spent in databus transfers (Tick)
system.mem_ctrls.dram.totMemAccLat          367117250                       # Total ticks spent from burst creation until serviced by the DRAM (Tick)
system.mem_ctrls.dram.avgQLat                 9528.94                       # Average queueing delay per DRAM burst ((Tick/Count))
system.mem_ctrls.dram.avgBusLat               5000.00                       # Average bus latency per DRAM burst ((Tick/Count))
system.mem_ctrls.dram.avgMemAccLat           28278.94                       # Average memory access latency per DRAM burst ((Tick/Count))
system.mem_ctrls.dram.readRowHits               11161                       # Number of row buffer hits during reads (Count)
system.mem_ctrls.dram.writeRowHits               7185                       # Number of row buffer hits during writes (Count)
system.mem_ctrls.dram.readRowHitRate            85.97                       # Row buffer hit rate for reads (Ratio)
system.mem_ctrls.dram.writeRowHitRate           90.70                       # Row buffer hit rate for writes (Ratio)
system.mem_ctrls.dram.bytesPerActivate::samples         2549                       # Bytes accessed per row activation (Byte)
system.mem_ctrls.dram.bytesPerActivate::mean   524.051785                       # Bytes accessed per row activation (Byte)
system.mem_ctrls.dram.bytesPerActivate::gmean   332.555627                       # Bytes accessed per row activation (Byte)
system.mem_ctrls.dram.bytesPerActivate::stdev   400.482696                       # Bytes accessed per row activation (Byte)
system.mem_ctrls.dram.bytesPerActivate::0-127          505     19.81%     19.81% # Bytes accessed per row activation (Byte)
system.mem_ctrls.dram.bytesPerActivate::128-255          448     17.58%     37.39% # Bytes accessed per row activation (Byte)
system.mem_ctrls.dram.bytesPerActivate::256-383          255     10.00%     47.39% # Bytes accessed per row activation (Byte)
system.mem_ctrls.dram.bytesPerActivate::384-511          151      5.92%     53.32% # Bytes accessed per row activation (Byte)
system.mem_ctrls.dram.bytesPerActivate::512-639          123      4.83%     58.14% # Bytes accessed per row activation (Byte)
system.mem_ctrls.dram.bytesPerActivate::640-767           98      3.84%     61.99% # Bytes accessed per row activation (Byte)
system.mem_ctrls.dram.bytesPerActivate::768-895           85      3.33%     65.32% # Bytes accessed per row activation (Byte)
system.mem_ctrls.dram.bytesPerActivate::896-1023           68      2.67%     67.99% # Bytes accessed per row activation (Byte)
system.mem_ctrls.dram.bytesPerActivate::1024-1151          816     32.01%    100.00% # Bytes accessed per row activation (Byte)
system.mem_ctrls.dram.bytesPerActivate::total         2549                       # Bytes accessed per row activation (Byte)
system.mem_ctrls.dram.bytesRead                830848                       # Total bytes read (Byte)
system.mem_ctrls.dram.bytesWritten             507008                       # Total bytes written (Byte)
system.mem_ctrls.dram.avgRdBW              397.367140                       # Average DRAM read bandwidth in MiBytes/s ((Byte/Second))
system.mem_ctrls.dram.avgWrBW              242.485171                       # Average DRAM write bandwidth in MiBytes/s ((Byte/Second))
system.mem_ctrls.dram.peakBW                 12800.00                       # Theoretical peak bandwidth in MiByte/s ((Byte/Second))
system.mem_ctrls.dram.busUtil                    5.00                       # Data bus utilization in percentage (Ratio)
system.mem_ctrls.dram.busUtilRead                3.10                       # Data bus utilization in percentage for reads (Ratio)
system.mem_ctrls.dram.busUtilWrite               1.89                       # Data bus utilization in percentage for writes (Ratio)
system.mem_ctrls.dram.pageHitRate               87.76                       # Row buffer hit rate, read and write combined (Ratio)
system.mem_ctrls.dram.power_state.pwrStateResidencyTicks::UNDEFINED   2090882500                       # Cumulative time (in ticks) in various power states (Tick)
system.mem_ctrls.dram.rank0.actEnergy         5212200                       # Energy for activate commands per rank (pJ) (Joule)
system.mem_ctrls.dram.rank0.preEnergy         2751375                       # Energy for precharge commands per rank (pJ) (Joule)
system.mem_ctrls.dram.rank0.readEnergy       21469980                       # Energy for read commands per rank (pJ) (Joule)
system.mem_ctrls.dram.rank0.writeEnergy       3434760                       # Energy for write commands per rank (pJ) (Joule)
system.mem_ctrls.dram.rank0.refreshEnergy 164723520.000000                       # Energy for refresh commands per rank (pJ) (Joule)
system.mem_ctrls.dram.rank0.actBackEnergy    239585820                       # Energy for active background per rank (pJ) (Joule)
system.mem_ctrls.dram.rank0.preBackEnergy    601142400                       # Energy for precharge background per rank (pJ) (Joule)
system.mem_ctrls.dram.rank0.actPowerDownEnergy            0                       # Energy for active power-down per rank (pJ) (Joule)
system.mem_ctrls.dram.rank0.prePowerDownEnergy            0                       # Energy for precharge power-down per rank (pJ) (Joule)
system.mem_ctrls.dram.rank0.selfRefreshEnergy            0                       # Energy for self refresh per rank (pJ) (Joule)
system.mem_ctrls.dram.rank0.totalEnergy    1038320055                       # Total energy per rank (pJ) (Joule)
system.mem_ctrls.dram.rank0.averagePower   496.594168                       # Core power per rank (mW) (Watt)
system.mem_ctrls.dram.rank0.totalIdleTime            0                       # Total Idle time Per DRAM Rank (Tick)
system.mem_ctrls.dram.rank0.pwrStateTime::IDLE   1560170000                       # Time in different power states (Tick)
system.mem_ctrls.dram.rank0.pwrStateTime::REF     69680000                       # Time in different power states (Tick)
system.mem_ctrls.dram.rank0.pwrStateTime::SREF            0                       # Time in different power states (Tick)
system.mem_ctrls.dram.rank0.pwrStateTime::PRE_PDN            0                       # Time in different power states (Tick)
system.mem_ctrls.dram.rank0.pwrStateTime::ACT    461032500                       # Time in different power states (Tick)
system.mem_ctrls.dram.rank0.pwrStateTime::ACT_PDN            0                       # Time in different power states (Tick)
system.mem_ctrls.dram.rank1.actEnergy        13051920                       # Energy for activate commands per rank (pJ) (Joule)
system.mem_ctrls.dram.rank1.preEnergy         6922080                       # Energy for precharge commands per rank (pJ) (Joule)
system.mem_ctrls.dram.rank1.readEnergy       71221500                       # Energy for read commands per rank (pJ) (Joule)
system.mem_ctrls.dram.rank1.writeEnergy      37918080                       # Energy for write commands per rank (pJ) (Joule)
system.mem_ctrls.dram.rank1.refreshEnergy 164723520.000000                       # Energy for refresh commands per rank (pJ) (Joule)
system.mem_ctrls.dram.rank1.actBackEnergy    781665510                       # Energy for active background per rank (pJ) (Joule)
system.mem_ctrls.dram.rank1.preBackEnergy    144654240                       # Energy for precharge background per rank (pJ) (Joule)
system.mem_ctrls.dram.rank1.actPowerDownEnergy            0                       # Energy for active power-down per rank (pJ) (Joule)
system.mem_ctrls.dram.rank1.prePowerDownEnergy            0                       # Energy for precharge power-down per rank (pJ) (Joule)
system.mem_ctrls.dram.rank1.selfRefreshEnergy            0                       # Energy for self refresh per rank (pJ) (Joule)
system.mem_ctrls.dram.rank1.totalEnergy    1220156850                       # Total energy per rank (pJ) (Joule)
system.mem_ctrls.dram.rank1.averagePower   583.560697                       # Core power per rank (mW) (Watt)
system.mem_ctrls.dram.rank1.totalIdleTime            0                       # Total Idle time Per DRAM Rank (Tick)
system.mem_ctrls.dram.rank1.pwrStateTime::IDLE    368448750                       # Time in different power states (Tick)
system.mem_ctrls.dram.rank1.pwrStateTime::REF     69680000                       # Time in different power states (Tick)
system.mem_ctrls.dram.rank1.pwrStateTime::SREF            0                       # Time in different power states (Tick)
system.mem_ctrls.dram.rank1.pwrStateTime::PRE_PDN            0                       # Time in different power states (Tick)
system.mem_ctrls.dram.rank1.pwrStateTime::ACT   1652753750                       # Time in different power states (Tick)
system.mem_ctrls.dram.rank1.pwrStateTime::ACT_PDN            0                       # Time in different power states (Tick)
system.mem_ctrls.power_state.pwrStateResidencyTicks::UNDEFINED   2090882500                       # Cumulative time (in ticks) in various power states (Tick)
system.membus.transDist::ReadResp                8450                       # Transaction distribution (Count)
system.membus.transDist::WritebackDirty          7942                       # Transaction distribution (Count)
system.membus.transDist::CleanEvict              4924                       # Transaction distribution (Count)
system.membus.transDist::ReadExReq               4928                       # Transaction distribution (Count)
system.membus.transDist::ReadExResp              4928                       # Transaction distribution (Count)
system.membus.transDist::ReadSharedReq           8451                       # Transaction distribution (Count)
system.membus.pktCount_system.l2cache.mem_side_port::system.mem_ctrls.port        39623                       # Packet count per connected requestor and responder (Count)
system.membus.pktCount_system.l2cache.mem_side_port::total        39623                       # Packet count per connected requestor and responder (Count)
system.membus.pktCount::total                   39623                       # Packet count per connected requestor and responder (Count)
system.membus.pktSize_system.l2cache.mem_side_port::system.mem_ctrls.port      1364480                       # Cumulative packet size per connected requestor and responder (Byte)
system.membus.pktSize_system.l2cache.mem_side_port::total      1364480                       # Cumulative packet size per connected requestor and responder (Byte)
system.membus.pktSize::total                  1364480                       # Cumulative packet size per connected requestor and responder (Byte)
system.membus.snoops                                0                       # Total snoops (Count)
system.membus.snoopTraffic                          0                       # Total snoop traffic (Byte)
system.membus.snoopFanout::samples              13379                       # Request fanout histogram (Count)
system.membus.snoopFanout::mean                     0                       # Request fanout histogram (Count)
system.membus.snoopFanout::stdev                    0                       # Request fanout histogram (Count)
system.membus.snoopFanout::underflows               0      0.00%      0.00% # Request fanout histogram (Count)
system.membus.snoopFanout::0                    13379    100.00%    100.00% # Request fanout histogram (Count)
system.membus.snoopFanout::1                        0      0.00%    100.00% # Request fanout histogram (Count)
system.membus.snoopFanout::overflows                0      0.00%    100.00% # Request fanout histogram (Count)
system.membus.snoopFanout::min_value                0                       # Request fanout histogram (Count)
system.membus.snoopFanout::max_value                0                       # Request fanout histogram (Count)
system.membus.snoopFanout::total                13379                       # Request fanout histogram (Count)
system.membus.power_state.pwrStateResidencyTicks::UNDEFINED   2090882500                       # Cumulative time (in ticks) in various power states (Tick)
system.membus.reqLayer2.occupancy            29006500                       # Layer occupancy (ticks) (Tick)
system.membus.reqLayer2.utilization               0.0                       # Layer utilization (Ratio)
system.membus.respLayer1.occupancy           36321000                       # Layer occupancy (ticks) (Tick)
system.membus.respLayer1.utilization              0.0                       # Layer utilization (Ratio)
system.membus.snoop_filter.totRequests          26245                       # Total number of requests made to the snoop filter. (Count)
system.membus.snoop_filter.hitSingleRequests        12867                       # Number of requests hitting in the snoop filter with a single holder of the requested data. (Count)
system.membus.snoop_filter.hitMultiRequests            0                       # Number of requests hitting in the snoop filter with multiple (>1) holders of the requested data. (Count)
system.membus.snoop_filter.totSnoops                0                       # Total number of snoops made to the snoop filter. (Count)
system.membus.snoop_filter.hitSingleSnoops            0                       # Number of snoops hitting in the snoop filter with a single holder of the requested data. (Count)
system.membus.snoop_filter.hitMultiSnoops            0                       # Number of snoops hitting in the snoop filter with multiple (>1) holders of the requested data. (Count)
system.workload.inst.arm                            0                       # number of arm instructions executed (Count)
system.workload.inst.quiesce                        0                       # number of quiesce instructions executed (Count)

---------- End Simulation Statistics   ----------
