
---------- Begin Simulation Statistics ----------
simSeconds                                   0.002104                       # Number of seconds simulated (Second)
simTicks                                   2104109000                       # Number of ticks simulated (Tick)
finalTick                                  2104109000                       # Number of ticks from beginning of simulation (restored from checkpoints and never reset) (Tick)
simFreq                                  1000000000000                       # The number of ticks per simulated second ((Tick/Second))
hostSeconds                                     23.80                       # Real time elapsed on the host (Second)
hostTickRate                                 88410607                       # The number of ticks simulated per host second (ticks/s) ((Tick/Second))
hostMemory                                     924564                       # Number of bytes of host memory used (Byte)
simInsts                                      6436803                       # Number of instructions simulated (Count)
simOps                                       10693060                       # Number of ops (including micro ops) simulated (Count)
hostInstRate                                   270461                       # Simulator instruction rate (inst/s) ((Count/Second))
hostOpRate                                     449300                       # Simulator op (including micro ops) rate (op/s) ((Count/Second))
system.clk_domain.clock                           500                       # Clock period in ticks (Tick)
system.clk_domain.voltage_domain.voltage            1                       # Voltage in Volts (Volt)
system.cpu.numCycles                          4208219                       # Number of cpu cycles simulated (Cycle)
system.cpu.numWorkItemsStarted                      0                       # Number of work items this cpu started (Count)
system.cpu.numWorkItemsCompleted                    0                       # Number of work items this cpu completed (Count)
system.cpu.instsAdded                        10886256                       # Number of instructions added to the IQ (excludes non-spec) (Count)
system.cpu.nonSpecInstsAdded                      140                       # Number of non-speculative instructions added to the IQ (Count)
system.cpu.instsIssued                       10832197                       # Number of instructions issued (Count)
system.cpu.squashedInstsIssued                    202                       # Number of squashed instructions issued (Count)
system.cpu.squashedInstsExamined               193295                       # Number of squashed instructions iterated over during squash; mainly for profiling (Count)
system.cpu.squashedOperandsExamined            322453                       # Number of squashed operands that are examined and possibly removed from graph (Count)
system.cpu.squashedNonSpecRemoved                 116                       # Number of squashed non-spec instructions that were removed (Count)
system.cpu.numIssuedDist::samples             3997392                       # Number of insts issued each cycle (Count)
system.cpu.numIssuedDist::mean               2.709816                       # Number of insts issued each cycle (Count)
system.cpu.numIssuedDist::stdev              2.165188                       # Number of insts issued each cycle (Count)
system.cpu.numIssuedDist::underflows                0      0.00%      0.00% # Number of insts issued each cycle (Count)
system.cpu.numIssuedDist::0                    916633     22.93%     22.93% # Number of insts issued each cycle (Count)
system.cpu.numIssuedDist::1                    358621      8.97%     31.90% # Number of insts issued each cycle (Count)
system.cpu.numIssuedDist::2                    634042     15.86%     47.76% # Number of insts issued each cycle (Count)
system.cpu.numIssuedDist::3                    745067     18.64%     66.40% # Number of insts issued each cycle (Count)
system.cpu.numIssuedDist::4                    526101     13.16%     79.56% # Number of insts issued each cycle (Count)
system.cpu.numIssuedDist::5                    434474     10.87%     90.43% # Number of insts issued each cycle (Count)
system.cpu.numIssuedDist::6                    113996      2.85%     93.28% # Number of insts issued each cycle (Count)
system.cpu.numIssuedDist::7                    138123      3.46%     96.74% # Number of insts issued each cycle (Count)
system.cpu.numIssuedDist::8                    130335      3.26%    100.00% # Number of insts issued each cycle (Count)
system.cpu.numIssuedDist::overflows                 0      0.00%    100.00% # Number of insts issued each cycle (Count)
system.cpu.numIssuedDist::min_value                 0                       # Number of insts issued each cycle (Count)
system.cpu.numIssuedDist::max_value                 8                       # Number of insts issued each cycle (Count)
system.cpu.numIssuedDist::total               3997392                       # Number of insts issued each cycle (Count)
system.cpu.statFuBusy::No_OpClass                   0      0.00%      0.00% # attempts to use FU when none available (Count)
system.cpu.statFuBusy::IntAlu                       0      0.00%      0.00% # attempts to use FU when none available (Count)
system.cpu.statFuBusy::IntMult                      0      0.00%      0.00% # attempts to use FU when none available (Count)
system.cpu.statFuBusy::IntDiv                       0      0.00%      0.00% # attempts to use FU when none available (Count)
system.cpu.statFuBusy::FloatAdd                     0      0.00%      0.00% # attempts to use FU when none available (Count)
system.cpu.statFuBusy::FloatCmp                     0      0.00%      0.00% # attempts to use FU when none available (Count)
system.cpu.statFuBusy::FloatCvt                     0      0.00%      0.00% # attempts to use FU when none available (Count)
system.cpu.statFuBusy::FloatMult                    0      0.00%      0.00% # attempts to use FU when none available (Count)
system.cpu.statFuBusy::FloatMultAcc                 0      0.00%      0.00% # attempts to use FU when none available (Count)
system.cpu.statFuBusy::FloatDiv                     0      0.00%      0.00% # attempts to use FU when none available (Count)
system.cpu.statFuBusy::FloatMisc                    0      0.00%      0.00% # attempts to use FU when none available (Count)
system.cpu.statFuBusy::FloatSqrt                    0      0.00%      0.00% # attempts to use FU when none available (Count)
system.cpu.statFuBusy::SimdAdd                      0      0.00%      0.00% # attempts to use FU when none available (Count)
system.cpu.statFuBusy::SimdAddAcc                   0      0.00%      0.00% # attempts to use FU when none available (Count)
system.cpu.statFuBusy::SimdAlu                     22      0.03%      0.03% # attempts to use FU when none available (Count)
system.cpu.statFuBusy::SimdCmp                      0      0.00%      0.03% # attempts to use FU when none available (Count)
system.cpu.statFuBusy::SimdCvt                      1      0.00%      0.03% # attempts to use FU when none available (Count)
system.cpu.statFuBusy::SimdMisc                     2      0.00%      0.03% # attempts to use FU when none available (Count)
system.cpu.statFuBusy::SimdMult                     0      0.00%      0.03% # attempts to use FU when none available (Count)
system.cpu.statFuBusy::SimdMultAcc                  0      0.00%      0.03% # attempts to use FU when none available (Count)
system.cpu.statFuBusy::SimdShift                    0      0.00%      0.03% # attempts to use FU when none available (Count)
system.cpu.statFuBusy::SimdShiftAcc                 0      0.00%      0.03% # attempts to use FU when none available (Count)
system.cpu.statFuBusy::SimdDiv                      0      0.00%      0.03% # attempts to use FU when none available (Count)
system.cpu.statFuBusy::SimdSqrt                     0      0.00%      0.03% # attempts to use FU when none available (Count)
system.cpu.statFuBusy::SimdFloatAdd                 0      0.00%      0.03% # attempts to use FU when none available (Count)
system.cpu.statFuBusy::SimdFloatAlu                 0      0.00%      0.03% # attempts to use FU when none available (Count)
system.cpu.statFuBusy::SimdFloatCmp                 0      0.00%      0.03% # attempts to use FU when none available (Count)
system.cpu.statFuBusy::SimdFloatCvt                 0      0.00%      0.03% # attempts to use FU when none available (Count)
system.cpu.statFuBusy::SimdFloatDiv                 0      0.00%      0.03% # attempts to use FU when none available (Count)
system.cpu.statFuBusy::SimdFloatMisc                0      0.00%      0.03% # attempts to use FU when none available (Count)
system.cpu.statFuBusy::SimdFloatMult                0      0.00%      0.03% # attempts to use FU when none available (Count)
system.cpu.statFuBusy::SimdFloatMultAcc             0      0.00%      0.03% # attempts to use FU when none available (Count)
system.cpu.statFuBusy::SimdFloatSqrt                0      0.00%      0.03% # attempts to use FU when none available (Count)
system.cpu.statFuBusy::SimdReduceAdd                0      0.00%      0.03% # attempts to use FU when none available (Count)
system.cpu.statFuBusy::SimdReduceAlu                0      0.00%      0.03% # attempts to use FU when none available (Count)
system.cpu.statFuBusy::SimdReduceCmp                0      0.00%      0.03% # attempts to use FU when none available (Count)
system.cpu.statFuBusy::SimdFloatReduceAdd            0      0.00%      0.03% # attempts to use FU when none available (Count)
system.cpu.statFuBusy::SimdFloatReduceCmp            0      0.00%      0.03% # attempts to use FU when none available (Count)
system.cpu.statFuBusy::SimdAes                      0      0.00%      0.03% # attempts to use FU when none available (Count)
system.cpu.statFuBusy::SimdAesMix                   0      0.00%      0.03% # attempts to use FU when none available (Count)
system.cpu.statFuBusy::SimdSha1Hash                 0      0.00%      0.03% # attempts to use FU when none available (Count)
system.cpu.statFuBusy::SimdSha1Hash2                0      0.00%      0.03% # attempts to use FU when none available (Count)
system.cpu.statFuBusy::SimdSha256Hash               0      0.00%      0.03% # attempts to use FU when none available (Count)
system.cpu.statFuBusy::SimdSha256Hash2              0      0.00%      0.03% # attempts to use FU when none available (Count)
system.cpu.statFuBusy::SimdShaSigma2                0      0.00%      0.03% # attempts to use FU when none available (Count)
system.cpu.statFuBusy::SimdShaSigma3                0      0.00%      0.03% # attempts to use FU when none available (Count)
system.cpu.statFuBusy::SimdPredAlu                  0      0.00%      0.03% # attempts to use FU when none available (Count)
system.cpu.statFuBusy::MemRead                   9442     11.58%     11.61% # attempts to use FU when none available (Count)
system.cpu.statFuBusy::MemWrite                 71938     88.25%     99.87% # attempts to use FU when none available (Count)
system.cpu.statFuBusy::FloatMemRead                32      0.04%     99.91% # attempts to use FU when none available (Count)
system.cpu.statFuBusy::FloatMemWrite               77      0.09%    100.00% # attempts to use FU when none available (Count)
system.cpu.statFuBusy::IprAccess                    0      0.00%    100.00% # attempts to use FU when none available (Count)
system.cpu.statFuBusy::InstPrefetch                 0      0.00%    100.00% # attempts to use FU when none available (Count)
system.cpu.statIssuedInstType_0::No_OpClass         2757      0.03%      0.03% # Number of instructions issued per FU type, per thread (Count)
system.cpu.statIssuedInstType_0::IntAlu       7440654     68.69%     68.72% # Number of instructions issued per FU type, per thread (Count)
system.cpu.statIssuedInstType_0::IntMult       300325      2.77%     71.49% # Number of instructions issued per FU type, per thread (Count)
system.cpu.statIssuedInstType_0::IntDiv          1715      0.02%     71.50% # Number of instructions issued per FU type, per thread (Count)
system.cpu.statIssuedInstType_0::FloatAdd          220      0.00%     71.51% # Number of instructions issued per FU type, per thread (Count)
system.cpu.statIssuedInstType_0::FloatCmp            0      0.00%     71.51% # Number of instructions issued per FU type, per thread (Count)
system.cpu.statIssuedInstType_0::FloatCvt           32      0.00%     71.51% # Number of instructions issued per FU type, per thread (Count)
system.cpu.statIssuedInstType_0::FloatMult            0      0.00%     71.51% # Number of instructions issued per FU type, per thread (Count)
system.cpu.statIssuedInstType_0::FloatMultAcc            0      0.00%     71.51% # Number of instructions issued per FU type, per thread (Count)
system.cpu.statIssuedInstType_0::FloatDiv            0      0.00%     71.51% # Number of instructions issued per FU type, per thread (Count)
system.cpu.statIssuedInstType_0::FloatMisc            0      0.00%     71.51% # Number of instructions issued per FU type, per thread (Count)
system.cpu.statIssuedInstType_0::FloatSqrt            0      0.00%     71.51% # Number of instructions issued per FU type, per thread (Count)
system.cpu.statIssuedInstType_0::SimdAdd          411      0.00%     71.51% # Number of instructions issued per FU type, per thread (Count)
system.cpu.statIssuedInstType_0::SimdAddAcc            0      0.00%     71.51% # Number of instructions issued per FU type, per thread (Count)
system.cpu.statIssuedInstType_0::SimdAlu         1010      0.01%     71.52% # Number of instructions issued per FU type, per thread (Count)
system.cpu.statIssuedInstType_0::SimdCmp            0      0.00%     71.52% # Number of instructions issued per FU type, per thread (Count)
system.cpu.statIssuedInstType_0::SimdCvt         1189      0.01%     71.53% # Number of instructions issued per FU type, per thread (Count)
system.cpu.statIssuedInstType_0::SimdMisc          906      0.01%     71.54% # Number of instructions issued per FU type, per thread (Count)
system.cpu.statIssuedInstType_0::SimdMult            0      0.00%     71.54% # Number of instructions issued per FU type, per thread (Count)
system.cpu.statIssuedInstType_0::SimdMultAcc            0      0.00%     71.54% # Number of instructions issued per FU type, per thread (Count)
system.cpu.statIssuedInstType_0::SimdShift          347      0.00%     71.54% # Number of instructions issued per FU type, per thread (Count)
system.cpu.statIssuedInstType_0::SimdShiftAcc            0      0.00%     71.54% # Number of instructions issued per FU type, per thread (Count)
system.cpu.statIssuedInstType_0::SimdDiv            0      0.00%     71.54% # Number of instructions issued per FU type, per thread (Count)
system.cpu.statIssuedInstType_0::SimdSqrt            0      0.00%     71.54% # Number of instructions issued per FU type, per thread (Count)
system.cpu.statIssuedInstType_0::SimdFloatAdd            0      0.00%     71.54% # Number of instructions issued per FU type, per thread (Count)
system.cpu.statIssuedInstType_0::SimdFloatAlu            0      0.00%     71.54% # Number of instructions issued per FU type, per thread (Count)
system.cpu.statIssuedInstType_0::SimdFloatCmp            0      0.00%     71.54% # Number of instructions issued per FU type, per thread (Count)
system.cpu.statIssuedInstType_0::SimdFloatCvt            0      0.00%     71.54% # Number of instructions issued per FU type, per thread (Count)
system.cpu.statIssuedInstType_0::SimdFloatDiv            0      0.00%     71.54% # Number of instructions issued per FU type, per thread (Count)
system.cpu.statIssuedInstType_0::SimdFloatMisc            0      0.00%     71.54% # Number of instructions issued per FU type, per thread (Count)
system.cpu.statIssuedInstType_0::SimdFloatMult            0      0.00%     71.54% # Number of instructions issued per FU type, per thread (Count)
system.cpu.statIssuedInstType_0::SimdFloatMultAcc            0      0.00%     71.54% # Number of instructions issued per FU type, per thread (Count)
system.cpu.statIssuedInstType_0::SimdFloatSqrt            0      0.00%     71.54% # Number of instructions issued per FU type, per thread (Count)
system.cpu.statIssuedInstType_0::SimdReduceAdd            0      0.00%     71.54% # Number of instructions issued per FU type, per thread (Count)
system.cpu.statIssuedInstType_0::SimdReduceAlu            0      0.00%     71.54% # Number of instructions issued per FU type, per thread (Count)
system.cpu.statIssuedInstType_0::SimdReduceCmp            0      0.00%     71.54% # Number of instructions issued per FU type, per thread (Count)
system.cpu.statIssuedInstType_0::SimdFloatReduceAdd            0      0.00%     71.54% # Number of instructions issued per FU type, per thread (Count)
system.cpu.statIssuedInstType_0::SimdFloatReduceCmp            0      0.00%     71.54% # Number of instructions issued per FU type, per thread (Count)
system.cpu.statIssuedInstType_0::SimdAes            0      0.00%     71.54% # Number of instructions issued per FU type, per thread (Count)
system.cpu.statIssuedInstType_0::SimdAesMix            0      0.00%     71.54% # Number of instructions issued per FU type, per thread (Count)
system.cpu.statIssuedInstType_0::SimdSha1Hash            0      0.00%     71.54% # Number of instructions issued per FU type, per thread (Count)
system.cpu.statIssuedInstType_0::SimdSha1Hash2            0      0.00%     71.54% # Number of instructions issued per FU type, per thread (Count)
system.cpu.statIssuedInstType_0::SimdSha256Hash            0      0.00%     71.54% # Number of instructions issued per FU type, per thread (Count)
system.cpu.statIssuedInstType_0::SimdSha256Hash2            0      0.00%     71.54% # Number of instructions issued per FU type, per thread (Count)
system.cpu.statIssuedInstType_0::SimdShaSigma2            0      0.00%     71.54% # Number of instructions issued per FU type, per thread (Count)
system.cpu.statIssuedInstType_0::SimdShaSigma3            0      0.00%     71.54% # Number of instructions issued per FU type, per thread (Count)
system.cpu.statIssuedInstType_0::SimdPredAlu            0      0.00%     71.54% # Number of instructions issued per FU type, per thread (Count)
system.cpu.statIssuedInstType_0::MemRead      2261766     20.88%     92.42% # Number of instructions issued per FU type, per thread (Count)
system.cpu.statIssuedInstType_0::MemWrite       818686      7.56%     99.98% # Number of instructions issued per FU type, per thread (Count)
system.cpu.statIssuedInstType_0::FloatMemRead         1509      0.01%     99.99% # Number of instructions issued per FU type, per thread (Count)
system.cpu.statIssuedInstType_0::FloatMemWrite          670      0.01%    100.00% # Number of instructions issued per FU type, per thread (Count)
system.cpu.statIssuedInstType_0::IprAccess            0      0.00%    100.00% # Number of instructions issued per FU type, per thread (Count)
system.cpu.statIssuedInstType_0::InstPrefetch            0      0.00%    100.00% # Number of instructions issued per FU type, per thread (Count)
system.cpu.statIssuedInstType_0::total       10832197                       # Number of instructions issued per FU type, per thread (Count)
system.cpu.issueRate                         2.574057                       # Inst issue rate ((Count/Cycle))
system.cpu.fuBusy                               81514                       # FU busy when requested (Count)
system.cpu.fuBusyRate                        0.007525                       # FU busy rate (busy events/executed inst) ((Count/Count))
system.cpu.intInstQueueReads                 25730398                       # Number of integer instruction queue reads (Count)
system.cpu.intInstQueueWrites                11069942                       # Number of integer instruction queue writes (Count)
system.cpu.intInstQueueWakeupAccesses        10812053                       # Number of integer instruction queue wakeup accesses (Count)
system.cpu.fpInstQueueReads                     13101                       # Number of floating instruction queue reads (Count)
system.cpu.fpInstQueueWrites                     9905                       # Number of floating instruction queue writes (Count)
system.cpu.fpInstQueueWakeupAccesses             6141                       # Number of floating instruction queue wakeup accesses (Count)
system.cpu.vecInstQueueReads                        0                       # Number of vector instruction queue reads (Count)
system.cpu.vecInstQueueWrites                       0                       # Number of vector instruction queue writes (Count)
system.cpu.vecInstQueueWakeupAccesses               0                       # Number of vector instruction queue wakeup accesses (Count)
system.cpu.intAluAccesses                    10904354                       # Number of integer alu accesses (Count)
system.cpu.fpAluAccesses                         6600                       # Number of floating point alu accesses (Count)
system.cpu.vecAluAccesses                           0                       # Number of vector alu accesses (Count)
system.cpu.numInsts                          10823021                       # Number of executed instructions (Count)
system.cpu.numLoadInsts                       2260229                       # Number of load instructions executed (Count)
system.cpu.numSquashedInsts                      9173                       # Number of squashed instructions skipped in execute (Count)
system.cpu.numSwp                                   0                       # Number of swp insts executed (Count)
system.cpu.numNop                                   0                       # Number of nop insts executed (Count)
system.cpu.numRefs                            3079279                       # Number of memory reference insts executed (Count)
system.cpu.numBranches                         652742                       # Number of branches executed (Count)
system.cpu.numStoreInsts                       819050                       # Number of stores executed (Count)
system.cpu.numRate                           2.571877                       # Inst execution rate ((Count/Cycle))
system.cpu.timesIdled                            2397                       # Number of times that the entire CPU went into an idle state and unscheduled itself (Count)
system.cpu.idleCycles                          210827                       # Total number of cycles that the CPU has spent unscheduled due to idling (Cycle)
system.cpu.committedInsts                     6436803                       # Number of Instructions Simulated (Count)
system.cpu.committedOps                      10693060                       # Number of Ops (including micro ops) Simulated (Count)
system.cpu.cpi                               0.653775                       # CPI: Cycles Per Instruction ((Cycle/Count))
system.cpu.totalCpi                          0.653775                       # CPI: Total CPI of All Threads ((Cycle/Count))
system.cpu.ipc                               1.529579                       # IPC: Instructions Per Cycle ((Count/Cycle))
system.cpu.totalIpc                          1.529579                       # IPC: Total IPC of All Threads ((Count/Cycle))
system.cpu.intRegfileReads                   13683586                       # Number of integer regfile reads (Count)
system.cpu.intRegfileWrites                   9002626                       # Number of integer regfile writes (Count)
system.cpu.fpRegfileReads                        9635                       # Number of floating regfile reads (Count)
system.cpu.fpRegfileWrites                       4909                       # Number of floating regfile writes (Count)
system.cpu.ccRegfileReads                     2461894                       # number of cc regfile reads (Count)
system.cpu.ccRegfileWrites                    3074735                       # number of cc regfile writes (Count)
system.cpu.miscRegfileReads                   4844656                       # number of misc regfile reads (Count)
system.cpu.miscRegfileWrites                       18                       # number of misc regfile writes (Count)
system.cpu.MemDepUnit__0.insertedLoads        2268149                       # Number of loads inserted to the mem dependence unit. (Count)
system.cpu.MemDepUnit__0.insertedStores        821229                       # Number of stores inserted to the mem dependence unit. (Count)
system.cpu.MemDepUnit__0.conflictingLoads       987846                       # Number of conflicting loads. (Count)
system.cpu.MemDepUnit__0.conflictingStores        97575                       # Number of conflicting stores. (Count)
system.cpu.MemDepUnit__1.insertedLoads              0                       # Number of loads inserted to the mem dependence unit. (Count)
system.cpu.MemDepUnit__1.insertedStores             0                       # Number of stores inserted to the mem dependence unit. (Count)
system.cpu.MemDepUnit__1.conflictingLoads            0                       # Number of conflicting loads. (Count)
system.cpu.MemDepUnit__1.conflictingStores            0                       # Number of conflicting stores. (Count)
system.cpu.MemDepUnit__2.insertedLoads              0                       # Number of loads inserted to the mem dependence unit. (Count)
system.cpu.MemDepUnit__2.insertedStores             0                       # Number of stores inserted to the mem dependence unit. (Count)
system.cpu.MemDepUnit__2.conflictingLoads            0                       # Number of conflicting loads. (Count)
system.cpu.MemDepUnit__2.conflictingStores            0                       # Number of conflicting stores. (Count)
system.cpu.MemDepUnit__3.insertedLoads              0                       # Number of loads inserted to the mem dependence unit. (Count)
system.cpu.MemDepUnit__3.insertedStores             0                       # Number of stores inserted to the mem dependence unit. (Count)
system.cpu.MemDepUnit__3.conflictingLoads            0                       # Number of conflicting loads. (Count)
system.cpu.MemDepUnit__3.conflictingStores            0                       # Number of conflicting stores. (Count)
system.cpu.branchPred.lookups                  677829                       # Number of BP lookups (Count)
system.cpu.branchPred.condPredicted            463437                       # Number of conditional branches predicted (Count)
system.cpu.branchPred.condIncorrect              5197                       # Number of conditional branches incorrect (Count)
system.cpu.branchPred.BTBLookups               480964                       # Number of BTB lookups (Count)
system.cpu.branchPred.BTBHits                  480062                       # Number of BTB hits (Count)
system.cpu.branchPred.BTBHitRatio            0.998125                       # BTB Hit Ratio (Ratio)
system.cpu.branchPred.RASUsed                  102144                       # Number of times the RAS was used to get a target. (Count)
system.cpu.branchPred.RASIncorrect                  8                       # Number of incorrect RAS predictions. (Count)
system.cpu.branchPred.indirectLookups             954                       # Number of indirect predictor lookups. (Count)
system.cpu.branchPred.indirectHits                295                       # Number of indirect target hits. (Count)
system.cpu.branchPred.indirectMisses              659                       # Number of indirect misses. (Count)
system.cpu.branchPred.indirectMispredicted          279                       # Number of mispredicted indirect branches. (Count)
system.cpu.branchPred.loop_predictor.correct       426088                       # Number of times the loop predictor is the provider and the prediction is correct (Count)
system.cpu.branchPred.loop_predictor.wrong         8965                       # Number of times the loop predictor is the provider and the prediction is wrong (Count)
system.cpu.branchPred.tage.longestMatchProviderCorrect       389369                       # Number of times TAGE Longest Match is the provider and the prediction is correct (Count)
system.cpu.branchPred.tage.altMatchProviderCorrect         1416                       # Number of times TAGE Alt Match is the provider and the prediction is correct (Count)
system.cpu.branchPred.tage.bimodalAltMatchProviderCorrect          357                       # Number of times TAGE Alt Match is the bimodal and it is the provider and the prediction is correct (Count)
system.cpu.branchPred.tage.bimodalProviderCorrect        40119                       # Number of times there are no hits on the TAGE tables and the bimodal prediction is correct (Count)
system.cpu.branchPred.tage.longestMatchProviderWrong         1868                       # Number of times TAGE Longest Match is the provider and the prediction is wrong (Count)
system.cpu.branchPred.tage.altMatchProviderWrong          782                       # Number of times TAGE Alt Match is the provider and the prediction is wrong (Count)
system.cpu.branchPred.tage.bimodalAltMatchProviderWrong          154                       # Number of times TAGE Alt Match is the bimodal and it is the provider and the prediction is wrong (Count)
system.cpu.branchPred.tage.bimodalProviderWrong          988                       # Number of times there are no hits on the TAGE tables and the bimodal prediction is wrong (Count)
system.cpu.branchPred.tage.altMatchProviderWouldHaveHit          434                       # Number of times TAGE Longest Match is the provider, the prediction is wrong and Alt Match prediction was correct (Count)
system.cpu.branchPred.tage.longestMatchProviderWouldHaveHit          518                       # Number of times TAGE Alt Match is the provider, the prediction is wrong and Longest Match prediction was correct (Count)
system.cpu.branchPred.tage.longestMatchProvider::0            0                       # TAGE provider for longest match (Count)
system.cpu.branchPred.tage.longestMatchProvider::1         5295                       # TAGE provider for longest match (Count)
system.cpu.branchPred.tage.longestMatchProvider::2        11491                       # TAGE provider for longest match (Count)
system.cpu.branchPred.tage.longestMatchProvider::3        20361                       # TAGE provider for longest match (Count)
system.cpu.branchPred.tage.longestMatchProvider::4        11676                       # TAGE provider for longest match (Count)
system.cpu.branchPred.tage.longestMatchProvider::5        13703                       # TAGE provider for longest match (Count)
system.cpu.branchPred.tage.longestMatchProvider::6        36325                       # TAGE provider for longest match (Count)
system.cpu.branchPred.tage.longestMatchProvider::7         3452                       # TAGE provider for longest match (Count)
system.cpu.branchPred.tage.longestMatchProvider::8         2297                       # TAGE provider for longest match (Count)
system.cpu.branchPred.tage.longestMatchProvider::9        31307                       # TAGE provider for longest match (Count)
system.cpu.branchPred.tage.longestMatchProvider::10        10181                       # TAGE provider for longest match (Count)
system.cpu.branchPred.tage.longestMatchProvider::11        20867                       # TAGE provider for longest match (Count)
system.cpu.branchPred.tage.longestMatchProvider::12       226480                       # TAGE provider for longest match (Count)
system.cpu.branchPred.tage.altMatchProvider::0        29669                       # TAGE provider for alt match (Count)
system.cpu.branchPred.tage.altMatchProvider::1         1887                       # TAGE provider for alt match (Count)
system.cpu.branchPred.tage.altMatchProvider::2         6508                       # TAGE provider for alt match (Count)
system.cpu.branchPred.tage.altMatchProvider::3        24719                       # TAGE provider for alt match (Count)
system.cpu.branchPred.tage.altMatchProvider::4        28194                       # TAGE provider for alt match (Count)
system.cpu.branchPred.tage.altMatchProvider::5         8113                       # TAGE provider for alt match (Count)
system.cpu.branchPred.tage.altMatchProvider::6        31320                       # TAGE provider for alt match (Count)
system.cpu.branchPred.tage.altMatchProvider::7         2447                       # TAGE provider for alt match (Count)
system.cpu.branchPred.tage.altMatchProvider::8         3162                       # TAGE provider for alt match (Count)
system.cpu.branchPred.tage.altMatchProvider::9        21366                       # TAGE provider for alt match (Count)
system.cpu.branchPred.tage.altMatchProvider::10        15546                       # TAGE provider for alt match (Count)
system.cpu.branchPred.tage.altMatchProvider::11       220504                       # TAGE provider for alt match (Count)
system.cpu.branchPred.tage.altMatchProvider::12            0                       # TAGE provider for alt match (Count)
system.cpu.commit.commitSquashedInsts          191526                       # The number of squashed insts skipped by commit (Count)
system.cpu.commit.commitNonSpecStalls              24                       # The number of times commit has been forced to stall to communicate backwards (Count)
system.cpu.commit.branchMispredicts              4967                       # The number of times a branch was mispredicted (Count)
system.cpu.commit.numCommittedDist::samples      3969452                       # Number of insts commited each cycle (Count)
system.cpu.commit.numCommittedDist::mean     2.693838                       # Number of insts commited each cycle (Count)
system.cpu.commit.numCommittedDist::stdev     3.040864                       # Number of insts commited each cycle (Count)
system.cpu.commit.numCommittedDist::underflows            0      0.00%      0.00% # Number of insts commited each cycle (Count)
system.cpu.commit.numCommittedDist::0         1237560     31.18%     31.18% # Number of insts commited each cycle (Count)
system.cpu.commit.numCommittedDist::1          742758     18.71%     49.89% # Number of insts commited each cycle (Count)
system.cpu.commit.numCommittedDist::2          608802     15.34%     65.23% # Number of insts commited each cycle (Count)
system.cpu.commit.numCommittedDist::3          420642     10.60%     75.82% # Number of insts commited each cycle (Count)
system.cpu.commit.numCommittedDist::4            7717      0.19%     76.02% # Number of insts commited each cycle (Count)
system.cpu.commit.numCommittedDist::5           20666      0.52%     76.54% # Number of insts commited each cycle (Count)
system.cpu.commit.numCommittedDist::6            5505      0.14%     76.68% # Number of insts commited each cycle (Count)
system.cpu.commit.numCommittedDist::7          102872      2.59%     79.27% # Number of insts commited each cycle (Count)
system.cpu.commit.numCommittedDist::8          822930     20.73%    100.00% # Number of insts commited each cycle (Count)
system.cpu.commit.numCommittedDist::overflows            0      0.00%    100.00% # Number of insts commited each cycle (Count)
system.cpu.commit.numCommittedDist::min_value            0                       # Number of insts commited each cycle (Count)
system.cpu.commit.numCommittedDist::max_value            8                       # Number of insts commited each cycle (Count)
system.cpu.commit.numCommittedDist::total      3969452                       # Number of insts commited each cycle (Count)
system.cpu.commit.instsCommitted              6436803                       # Number of instructions committed (Count)
system.cpu.commit.opsCommitted               10693060                       # Number of ops (including micro ops) committed (Count)
system.cpu.commit.memRefs                     3058103                       # Number of memory references committed (Count)
system.cpu.commit.loads                       2243371                       # Number of loads committed (Count)
system.cpu.commit.amos                              0                       # Number of atomic instructions committed (Count)
system.cpu.commit.membars                           4                       # Number of memory barriers committed (Count)
system.cpu.commit.branches                     641846                       # Number of branches committed (Count)
system.cpu.commit.vectorInstructions                0                       # Number of committed Vector instructions. (Count)
system.cpu.commit.floating                       4869                       # Number of committed floating point instructions. (Count)
system.cpu.commit.integer                    10687938                       # Number of committed integer instructions. (Count)
system.cpu.commit.functionCalls                101100                       # Number of function calls committed. (Count)
system.cpu.commit.committedInstType_0::No_OpClass         1320      0.01%      0.01% # Class of committed instruction (Count)
system.cpu.commit.committedInstType_0::IntAlu      7328876     68.54%     68.55% # Class of committed instruction (Count)
system.cpu.commit.committedInstType_0::IntMult       300075      2.81%     71.36% # Class of committed instruction (Count)
system.cpu.commit.committedInstType_0::IntDiv         1538      0.01%     71.37% # Class of committed instruction (Count)
system.cpu.commit.committedInstType_0::FloatAdd           72      0.00%     71.37% # Class of committed instruction (Count)
system.cpu.commit.committedInstType_0::FloatCmp            0      0.00%     71.37% # Class of committed instruction (Count)
system.cpu.commit.committedInstType_0::FloatCvt           32      0.00%     71.37% # Class of committed instruction (Count)
system.cpu.commit.committedInstType_0::FloatMult            0      0.00%     71.37% # Class of committed instruction (Count)
system.cpu.commit.committedInstType_0::FloatMultAcc            0      0.00%     71.37% # Class of committed instruction (Count)
system.cpu.commit.committedInstType_0::FloatDiv            0      0.00%     71.37% # Class of committed instruction (Count)
system.cpu.commit.committedInstType_0::FloatMisc            0      0.00%     71.37% # Class of committed instruction (Count)
system.cpu.commit.committedInstType_0::FloatSqrt            0      0.00%     71.37% # Class of committed instruction (Count)
system.cpu.commit.committedInstType_0::SimdAdd          356      0.00%     71.38% # Class of committed instruction (Count)
system.cpu.commit.committedInstType_0::SimdAddAcc            0      0.00%     71.38% # Class of committed instruction (Count)
system.cpu.commit.committedInstType_0::SimdAlu          755      0.01%     71.38% # Class of committed instruction (Count)
system.cpu.commit.committedInstType_0::SimdCmp            0      0.00%     71.38% # Class of committed instruction (Count)
system.cpu.commit.committedInstType_0::SimdCvt          982      0.01%     71.39% # Class of committed instruction (Count)
system.cpu.commit.committedInstType_0::SimdMisc          801      0.01%     71.40% # Class of committed instruction (Count)
system.cpu.commit.committedInstType_0::SimdMult            0      0.00%     71.40% # Class of committed instruction (Count)
system.cpu.commit.committedInstType_0::SimdMultAcc            0      0.00%     71.40% # Class of committed instruction (Count)
system.cpu.commit.committedInstType_0::SimdShift          150      0.00%     71.40% # Class of committed instruction (Count)
system.cpu.commit.committedInstType_0::SimdShiftAcc            0      0.00%     71.40% # Class of committed instruction (Count)
system.cpu.commit.committedInstType_0::SimdDiv            0      0.00%     71.40% # Class of committed instruction (Count)
system.cpu.commit.committedInstType_0::SimdSqrt            0      0.00%     71.40% # Class of committed instruction (Count)
system.cpu.commit.committedInstType_0::SimdFloatAdd            0      0.00%     71.40% # Class of committed instruction (Count)
system.cpu.commit.committedInstType_0::SimdFloatAlu            0      0.00%     71.40% # Class of committed instruction (Count)
system.cpu.commit.committedInstType_0::SimdFloatCmp            0      0.00%     71.40% # Class of committed instruction (Count)
system.cpu.commit.committedInstType_0::SimdFloatCvt            0      0.00%     71.40% # Class of committed instruction (Count)
system.cpu.commit.committedInstType_0::SimdFloatDiv            0      0.00%     71.40% # Class of committed instruction (Count)
system.cpu.commit.committedInstType_0::SimdFloatMisc            0      0.00%     71.40% # Class of committed instruction (Count)
system.cpu.commit.committedInstType_0::SimdFloatMult            0      0.00%     71.40% # Class of committed instruction (Count)
system.cpu.commit.committedInstType_0::SimdFloatMultAcc            0      0.00%     71.40% # Class of committed instruction (Count)
system.cpu.commit.committedInstType_0::SimdFloatSqrt            0      0.00%     71.40% # Class of committed instruction (Count)
system.cpu.commit.committedInstType_0::SimdReduceAdd            0      0.00%     71.40% # Class of committed instruction (Count)
system.cpu.commit.committedInstType_0::SimdReduceAlu            0      0.00%     71.40% # Class of committed instruction (Count)
system.cpu.commit.committedInstType_0::SimdReduceCmp            0      0.00%     71.40% # Class of committed instruction (Count)
system.cpu.commit.committedInstType_0::SimdFloatReduceAdd            0      0.00%     71.40% # Class of committed instruction (Count)
system.cpu.commit.committedInstType_0::SimdFloatReduceCmp            0      0.00%     71.40% # Class of committed instruction (Count)
system.cpu.commit.committedInstType_0::SimdAes            0      0.00%     71.40% # Class of committed instruction (Count)
system.cpu.commit.committedInstType_0::SimdAesMix            0      0.00%     71.40% # Class of committed instruction (Count)
system.cpu.commit.committedInstType_0::SimdSha1Hash            0      0.00%     71.40% # Class of committed instruction (Count)
system.cpu.commit.committedInstType_0::SimdSha1Hash2            0      0.00%     71.40% # Class of committed instruction (Count)
system.cpu.commit.committedInstType_0::SimdSha256Hash            0      0.00%     71.40% # Class of committed instruction (Count)
system.cpu.commit.committedInstType_0::SimdSha256Hash2            0      0.00%     71.40% # Class of committed instruction (Count)
system.cpu.commit.committedInstType_0::SimdShaSigma2            0      0.00%     71.40% # Class of committed instruction (Count)
system.cpu.commit.committedInstType_0::SimdShaSigma3            0      0.00%     71.40% # Class of committed instruction (Count)
system.cpu.commit.committedInstType_0::SimdPredAlu            0      0.00%     71.40% # Class of committed instruction (Count)
system.cpu.commit.committedInstType_0::MemRead      2242277     20.97%     92.37% # Class of committed instruction (Count)
system.cpu.commit.committedInstType_0::MemWrite       814248      7.61%     99.99% # Class of committed instruction (Count)
system.cpu.commit.committedInstType_0::FloatMemRead         1094      0.01%    100.00% # Class of committed instruction (Count)
system.cpu.commit.committedInstType_0::FloatMemWrite          484      0.00%    100.00% # Class of committed instruction (Count)
system.cpu.commit.committedInstType_0::IprAccess            0      0.00%    100.00% # Class of committed instruction (Count)
system.cpu.commit.committedInstType_0::InstPrefetch            0      0.00%    100.00% # Class of committed instruction (Count)
system.cpu.commit.committedInstType_0::total     10693060                       # Class of committed instruction (Count)
system.cpu.commit.commitEligibleSamples        822930                       # number cycles where commit BW limit reached (Cycle)
system.cpu.dcache.demandHits::cpu.data        1228189                       # number of demand (read+write) hits (Count)
system.cpu.dcache.demandHits::total           1228189                       # number of demand (read+write) hits (Count)
system.cpu.dcache.overallHits::cpu.data       1228189                       # number of overall hits (Count)
system.cpu.dcache.overallHits::total          1228189                       # number of overall hits (Count)
system.cpu.dcache.demandMisses::cpu.data        40304                       # number of demand (read+write) misses (Count)
system.cpu.dcache.demandMisses::total           40304                       # number of demand (read+write) misses (Count)
system.cpu.dcache.overallMisses::cpu.data        40304                       # number of overall misses (Count)
system.cpu.dcache.overallMisses::total          40304                       # number of overall misses (Count)
system.cpu.dcache.demandMissLatency::cpu.data   2573027500                       # number of demand (read+write) miss ticks (Tick)
system.cpu.dcache.demandMissLatency::total   2573027500                       # number of demand (read+write) miss ticks (Tick)
system.cpu.dcache.overallMissLatency::cpu.data   2573027500                       # number of overall miss ticks (Tick)
system.cpu.dcache.overallMissLatency::total   2573027500                       # number of overall miss ticks (Tick)
system.cpu.dcache.demandAccesses::cpu.data      1268493                       # number of demand (read+write) accesses (Count)
system.cpu.dcache.demandAccesses::total       1268493                       # number of demand (read+write) accesses (Count)
system.cpu.dcache.overallAccesses::cpu.data      1268493                       # number of overall (read+write) accesses (Count)
system.cpu.dcache.overallAccesses::total      1268493                       # number of overall (read+write) accesses (Count)
system.cpu.dcache.demandMissRate::cpu.data     0.031773                       # miss rate for demand accesses (Ratio)
system.cpu.dcache.demandMissRate::total      0.031773                       # miss rate for demand accesses (Ratio)
system.cpu.dcache.overallMissRate::cpu.data     0.031773                       # miss rate for overall accesses (Ratio)
system.cpu.dcache.overallMissRate::total     0.031773                       # miss rate for overall accesses (Ratio)
system.cpu.dcache.demandAvgMissLatency::cpu.data 63840.499702                       # average overall miss latency in ticks ((Tick/Count))
system.cpu.dcache.demandAvgMissLatency::total 63840.499702                       # average overall miss latency in ticks ((Tick/Count))
system.cpu.dcache.overallAvgMissLatency::cpu.data 63840.499702                       # average overall miss latency ((Tick/Count))
system.cpu.dcache.overallAvgMissLatency::total 63840.499702                       # average overall miss latency ((Tick/Count))
system.cpu.dcache.blockedCycles::no_mshrs         5420                       # number of cycles access was blocked (Cycle)
system.cpu.dcache.blockedCycles::no_targets            0                       # number of cycles access was blocked (Cycle)
system.cpu.dcache.blockedCauses::no_mshrs          156                       # number of times access was blocked (Count)
system.cpu.dcache.blockedCauses::no_targets            0                       # number of times access was blocked (Count)
system.cpu.dcache.avgBlocked::no_mshrs      34.743590                       # average number of cycles each access was blocked ((Cycle/Count))
system.cpu.dcache.avgBlocked::no_targets          nan                       # average number of cycles each access was blocked ((Cycle/Count))
system.cpu.dcache.writebacks::writebacks        10849                       # number of writebacks (Count)
system.cpu.dcache.writebacks::total             10849                       # number of writebacks (Count)
system.cpu.dcache.demandMshrHits::cpu.data        25583                       # number of demand (read+write) MSHR hits (Count)
system.cpu.dcache.demandMshrHits::total         25583                       # number of demand (read+write) MSHR hits (Count)
system.cpu.dcache.overallMshrHits::cpu.data        25583                       # number of overall MSHR hits (Count)
system.cpu.dcache.overallMshrHits::total        25583                       # number of overall MSHR hits (Count)
system.cpu.dcache.demandMshrMisses::cpu.data        14721                       # number of demand (read+write) MSHR misses (Count)
system.cpu.dcache.demandMshrMisses::total        14721                       # number of demand (read+write) MSHR misses (Count)
system.cpu.dcache.overallMshrMisses::cpu.data        14721                       # number of overall MSHR misses (Count)
system.cpu.dcache.overallMshrMisses::total        14721                       # number of overall MSHR misses (Count)
system.cpu.dcache.demandMshrMissLatency::cpu.data    849182000                       # number of demand (read+write) MSHR miss ticks (Tick)
system.cpu.dcache.demandMshrMissLatency::total    849182000                       # number of demand (read+write) MSHR miss ticks (Tick)
system.cpu.dcache.overallMshrMissLatency::cpu.data    849182000                       # number of overall MSHR miss ticks (Tick)
system.cpu.dcache.overallMshrMissLatency::total    849182000                       # number of overall MSHR miss ticks (Tick)
system.cpu.dcache.demandMshrMissRate::cpu.data     0.011605                       # mshr miss ratio for demand accesses (Ratio)
system.cpu.dcache.demandMshrMissRate::total     0.011605                       # mshr miss ratio for demand accesses (Ratio)
system.cpu.dcache.overallMshrMissRate::cpu.data     0.011605                       # mshr miss ratio for overall accesses (Ratio)
system.cpu.dcache.overallMshrMissRate::total     0.011605                       # mshr miss ratio for overall accesses (Ratio)
system.cpu.dcache.demandAvgMshrMissLatency::cpu.data 57685.075742                       # average overall mshr miss latency ((Tick/Count))
system.cpu.dcache.demandAvgMshrMissLatency::total 57685.075742                       # average overall mshr miss latency ((Tick/Count))
system.cpu.dcache.overallAvgMshrMissLatency::cpu.data 57685.075742                       # average overall mshr miss latency ((Tick/Count))
system.cpu.dcache.overallAvgMshrMissLatency::total 57685.075742                       # average overall mshr miss latency ((Tick/Count))
system.cpu.dcache.replacements                  14655                       # number of replacements (Count)
system.cpu.dcache.LockedRMWReadReq.hits::cpu.data            2                       # number of LockedRMWReadReq hits (Count)
system.cpu.dcache.LockedRMWReadReq.hits::total            2                       # number of LockedRMWReadReq hits (Count)
system.cpu.dcache.LockedRMWReadReq.accesses::cpu.data            2                       # number of LockedRMWReadReq accesses(hits+misses) (Count)
system.cpu.dcache.LockedRMWReadReq.accesses::total            2                       # number of LockedRMWReadReq accesses(hits+misses) (Count)
system.cpu.dcache.LockedRMWReadReq.mshrMissLatency::cpu.data         8000                       # number of LockedRMWReadReq MSHR miss ticks (Tick)
system.cpu.dcache.LockedRMWReadReq.mshrMissLatency::total         8000                       # number of LockedRMWReadReq MSHR miss ticks (Tick)
system.cpu.dcache.LockedRMWReadReq.avgMshrMissLatency::cpu.data          inf                       # average LockedRMWReadReq mshr miss latency ((Tick/Count))
system.cpu.dcache.LockedRMWReadReq.avgMshrMissLatency::total          inf                       # average LockedRMWReadReq mshr miss latency ((Tick/Count))
system.cpu.dcache.LockedRMWWriteReq.hits::cpu.data            2                       # number of LockedRMWWriteReq hits (Count)
system.cpu.dcache.LockedRMWWriteReq.hits::total            2                       # number of LockedRMWWriteReq hits (Count)
system.cpu.dcache.LockedRMWWriteReq.accesses::cpu.data            2                       # number of LockedRMWWriteReq accesses(hits+misses) (Count)
system.cpu.dcache.LockedRMWWriteReq.accesses::total            2                       # number of LockedRMWWriteReq accesses(hits+misses) (Count)
system.cpu.dcache.ReadReq.hits::cpu.data       420681                       # number of ReadReq hits (Count)
system.cpu.dcache.ReadReq.hits::total          420681                       # number of ReadReq hits (Count)
system.cpu.dcache.ReadReq.misses::cpu.data        33079                       # number of ReadReq misses (Count)
system.cpu.dcache.ReadReq.misses::total         33079                       # number of ReadReq misses (Count)
system.cpu.dcache.ReadReq.missLatency::cpu.data   2195160500                       # number of ReadReq miss ticks (Tick)
system.cpu.dcache.ReadReq.missLatency::total   2195160500                       # number of ReadReq miss ticks (Tick)
system.cpu.dcache.ReadReq.accesses::cpu.data       453760                       # number of ReadReq accesses(hits+misses) (Count)
system.cpu.dcache.ReadReq.accesses::total       453760                       # number of ReadReq accesses(hits+misses) (Count)
system.cpu.dcache.ReadReq.missRate::cpu.data     0.072900                       # miss rate for ReadReq accesses (Ratio)
system.cpu.dcache.ReadReq.missRate::total     0.072900                       # miss rate for ReadReq accesses (Ratio)
system.cpu.dcache.ReadReq.avgMissLatency::cpu.data 66361.150579                       # average ReadReq miss latency ((Tick/Count))
system.cpu.dcache.ReadReq.avgMissLatency::total 66361.150579                       # average ReadReq miss latency ((Tick/Count))
system.cpu.dcache.ReadReq.mshrHits::cpu.data        25577                       # number of ReadReq MSHR hits (Count)
system.cpu.dcache.ReadReq.mshrHits::total        25577                       # number of ReadReq MSHR hits (Count)
system.cpu.dcache.ReadReq.mshrMisses::cpu.data         7502                       # number of ReadReq MSHR misses (Count)
system.cpu.dcache.ReadReq.mshrMisses::total         7502                       # number of ReadReq MSHR misses (Count)
system.cpu.dcache.ReadReq.mshrMissLatency::cpu.data    478830000                       # number of ReadReq MSHR miss ticks (Tick)
system.cpu.dcache.ReadReq.mshrMissLatency::total    478830000                       # number of ReadReq MSHR miss ticks (Tick)
system.cpu.dcache.ReadReq.mshrMissRate::cpu.data     0.016533                       # mshr miss rate for ReadReq accesses (Ratio)
system.cpu.dcache.ReadReq.mshrMissRate::total     0.016533                       # mshr miss rate for ReadReq accesses (Ratio)
system.cpu.dcache.ReadReq.avgMshrMissLatency::cpu.data 63826.979472                       # average ReadReq mshr miss latency ((Tick/Count))
system.cpu.dcache.ReadReq.avgMshrMissLatency::total 63826.979472                       # average ReadReq mshr miss latency ((Tick/Count))
system.cpu.dcache.WriteReq.hits::cpu.data       807508                       # number of WriteReq hits (Count)
system.cpu.dcache.WriteReq.hits::total         807508                       # number of WriteReq hits (Count)
system.cpu.dcache.WriteReq.misses::cpu.data         7225                       # number of WriteReq misses (Count)
system.cpu.dcache.WriteReq.misses::total         7225                       # number of WriteReq misses (Count)
system.cpu.dcache.WriteReq.missLatency::cpu.data    377867000                       # number of WriteReq miss ticks (Tick)
system.cpu.dcache.WriteReq.missLatency::total    377867000                       # number of WriteReq miss ticks (Tick)
system.cpu.dcache.WriteReq.accesses::cpu.data       814733                       # number of WriteReq accesses(hits+misses) (Count)
system.cpu.dcache.WriteReq.accesses::total       814733                       # number of WriteReq accesses(hits+misses) (Count)
system.cpu.dcache.WriteReq.missRate::cpu.data     0.008868                       # miss rate for WriteReq accesses (Ratio)
system.cpu.dcache.WriteReq.missRate::total     0.008868                       # miss rate for WriteReq accesses (Ratio)
system.cpu.dcache.WriteReq.avgMissLatency::cpu.data 52299.930796                       # average WriteReq miss latency ((Tick/Count))
system.cpu.dcache.WriteReq.avgMissLatency::total 52299.930796                       # average WriteReq miss latency ((Tick/Count))
system.cpu.dcache.WriteReq.mshrHits::cpu.data            6                       # number of WriteReq MSHR hits (Count)
system.cpu.dcache.WriteReq.mshrHits::total            6                       # number of WriteReq MSHR hits (Count)
system.cpu.dcache.WriteReq.mshrMisses::cpu.data         7219                       # number of WriteReq MSHR misses (Count)
system.cpu.dcache.WriteReq.mshrMisses::total         7219                       # number of WriteReq MSHR misses (Count)
system.cpu.dcache.WriteReq.mshrMissLatency::cpu.data    370352000                       # number of WriteReq MSHR miss ticks (Tick)
system.cpu.dcache.WriteReq.mshrMissLatency::total    370352000                       # number of WriteReq MSHR miss ticks (Tick)
system.cpu.dcache.WriteReq.mshrMissRate::cpu.data     0.008861                       # mshr miss rate for WriteReq accesses (Ratio)
system.cpu.dcache.WriteReq.mshrMissRate::total     0.008861                       # mshr miss rate for WriteReq accesses (Ratio)
system.cpu.dcache.WriteReq.avgMshrMissLatency::cpu.data 51302.396454                       # average WriteReq mshr miss latency ((Tick/Count))
system.cpu.dcache.WriteReq.avgMshrMissLatency::total 51302.396454                       # average WriteReq mshr miss latency ((Tick/Count))
system.cpu.dcache.power_state.pwrStateResidencyTicks::UNDEFINED   2104109000                       # Cumulative time (in ticks) in various power states (Tick)
system.cpu.dcache.tags.tagsInUse            63.938093                       # Average ticks per tags in use ((Tick/Count))
system.cpu.dcache.tags.totalRefs              1242914                       # Total number of references to valid blocks. (Count)
system.cpu.dcache.tags.sampledRefs              14719                       # Sample count of references to valid blocks. (Count)
system.cpu.dcache.tags.avgRefs              84.442829                       # Average number of references to valid blocks. ((Count/Count))
system.cpu.dcache.tags.warmupTick             8367500                       # The tick when the warmup percentage was hit. (Tick)
system.cpu.dcache.tags.occupancies::cpu.data    63.938093                       # Average occupied blocks per tick, per requestor ((Count/Tick))
system.cpu.dcache.tags.avgOccs::cpu.data     0.999033                       # Average percentage of cache occupancy ((Ratio/Tick))
system.cpu.dcache.tags.avgOccs::total        0.999033                       # Average percentage of cache occupancy ((Ratio/Tick))
system.cpu.dcache.tags.occupanciesTaskId::1024           64                       # Occupied blocks per task id (Count)
system.cpu.dcache.tags.ageTaskId_1024::0           46                       # Occupied blocks per task id, per block age (Count)
system.cpu.dcache.tags.ageTaskId_1024::1           18                       # Occupied blocks per task id, per block age (Count)
system.cpu.dcache.tags.ratioOccsTaskId::1024            1                       # Ratio of occupied blocks and all blocks, per task id (Ratio)
system.cpu.dcache.tags.tagAccesses            2551713                       # Number of tag accesses (Count)
system.cpu.dcache.tags.dataAccesses           2551713                       # Number of data accesses (Count)
system.cpu.dcache.tags.power_state.pwrStateResidencyTicks::UNDEFINED   2104109000                       # Cumulative time (in ticks) in various power states (Tick)
system.cpu.decode.idleCycles                   450585                       # Number of cycles decode is idle (Cycle)
system.cpu.decode.blockedCycles               2111009                       # Number of cycles decode is blocked (Cycle)
system.cpu.decode.runCycles                    962900                       # Number of cycles decode is running (Cycle)
system.cpu.decode.unblockCycles                467625                       # Number of cycles decode is unblocking (Cycle)
system.cpu.decode.squashCycles                   5273                       # Number of cycles decode is squashing (Cycle)
system.cpu.decode.branchResolved               477141                       # Number of times decode resolved a branch (Count)
system.cpu.decode.branchMispred                   625                       # Number of times decode detected a branch misprediction (Count)
system.cpu.decode.decodedInsts               10929973                       # Number of instructions handled by decode (Count)
system.cpu.decode.squashedInsts                  2993                       # Number of squashed instructions handled by decode (Count)
system.cpu.fetch.icacheStallCycles            1002795                       # Number of cycles fetch is stalled on an Icache miss (Cycle)
system.cpu.fetch.insts                        6607578                       # Number of instructions fetch has processed (Count)
system.cpu.fetch.branches                      677829                       # Number of branches that fetch encountered (Count)
system.cpu.fetch.predictedBranches             582501                       # Number of branches that fetch has predicted taken (Count)
system.cpu.fetch.cycles                       2985214                       # Number of cycles fetch has run and was not squashing or blocked (Cycle)
system.cpu.fetch.squashCycles                   11790                       # Number of cycles fetch has spent squashing (Cycle)
system.cpu.fetch.miscStallCycles                  428                       # Number of cycles fetch has spent waiting on interrupts, or bad addresses, or out of MSHRs (Cycle)
system.cpu.fetch.pendingTrapStallCycles          3034                       # Number of stall cycles due to pending traps (Cycle)
system.cpu.fetch.icacheWaitRetryStallCycles           26                       # Number of stall cycles due to full MSHR (Cycle)
system.cpu.fetch.cacheLines                    895634                       # Number of cache lines fetched (Count)
system.cpu.fetch.icacheSquashes                  2067                       # Number of outstanding Icache misses that were squashed (Count)
system.cpu.fetch.nisnDist::samples            3997392                       # Number of instructions fetched each cycle (Total) (Count)
system.cpu.fetch.nisnDist::mean              2.752265                       # Number of instructions fetched each cycle (Total) (Count)
system.cpu.fetch.nisnDist::stdev             3.374538                       # Number of instructions fetched each cycle (Total) (Count)
system.cpu.fetch.nisnDist::underflows               0      0.00%      0.00% # Number of instructions fetched each cycle (Total) (Count)
system.cpu.fetch.nisnDist::0                  2060896     51.56%     51.56% # Number of instructions fetched each cycle (Total) (Count)
system.cpu.fetch.nisnDist::1                   259390      6.49%     58.04% # Number of instructions fetched each cycle (Total) (Count)
system.cpu.fetch.nisnDist::2                    86393      2.16%     60.21% # Number of instructions fetched each cycle (Total) (Count)
system.cpu.fetch.nisnDist::3                   203084      5.08%     65.29% # Number of instructions fetched each cycle (Total) (Count)
system.cpu.fetch.nisnDist::4                    58993      1.48%     66.76% # Number of instructions fetched each cycle (Total) (Count)
system.cpu.fetch.nisnDist::5                    92092      2.30%     69.07% # Number of instructions fetched each cycle (Total) (Count)
system.cpu.fetch.nisnDist::6                   203809      5.10%     74.16% # Number of instructions fetched each cycle (Total) (Count)
system.cpu.fetch.nisnDist::7                   220710      5.52%     79.69% # Number of instructions fetched each cycle (Total) (Count)
system.cpu.fetch.nisnDist::8                   812025     20.31%    100.00% # Number of instructions fetched each cycle (Total) (Count)
system.cpu.fetch.nisnDist::overflows                0      0.00%    100.00% # Number of instructions fetched each cycle (Total) (Count)
system.cpu.fetch.nisnDist::min_value                0                       # Number of instructions fetched each cycle (Total) (Count)
system.cpu.fetch.nisnDist::max_value                8                       # Number of instructions fetched each cycle (Total) (Count)
system.cpu.fetch.nisnDist::total              3997392                       # Number of instructions fetched each cycle (Total) (Count)
system.cpu.fetch.branchRate                  0.161073                       # Number of branch fetches per cycle (Ratio)
system.cpu.fetch.rate                        1.570160                       # Number of inst fetches per cycle ((Count/Cycle))
system.cpu.icache.demandHits::cpu.inst         891725                       # number of demand (read+write) hits (Count)
system.cpu.icache.demandHits::total            891725                       # number of demand (read+write) hits (Count)
system.cpu.icache.overallHits::cpu.inst        891725                       # number of overall hits (Count)
system.cpu.icache.overallHits::total           891725                       # number of overall hits (Count)
system.cpu.icache.demandMisses::cpu.inst         3909                       # number of demand (read+write) misses (Count)
system.cpu.icache.demandMisses::total            3909                       # number of demand (read+write) misses (Count)
system.cpu.icache.overallMisses::cpu.inst         3909                       # number of overall misses (Count)
system.cpu.icache.overallMisses::total           3909                       # number of overall misses (Count)
system.cpu.icache.demandMissLatency::cpu.inst    230125999                       # number of demand (read+write) miss ticks (Tick)
system.cpu.icache.demandMissLatency::total    230125999                       # number of demand (read+write) miss ticks (Tick)
system.cpu.icache.overallMissLatency::cpu.inst    230125999                       # number of overall miss ticks (Tick)
system.cpu.icache.overallMissLatency::total    230125999                       # number of overall miss ticks (Tick)
system.cpu.icache.demandAccesses::cpu.inst       895634                       # number of demand (read+write) accesses (Count)
system.cpu.icache.demandAccesses::total        895634                       # number of demand (read+write) accesses (Count)
system.cpu.icache.overallAccesses::cpu.inst       895634                       # number of overall (read+write) accesses (Count)
system.cpu.icache.overallAccesses::total       895634                       # number of overall (read+write) accesses (Count)
system.cpu.icache.demandMissRate::cpu.inst     0.004365                       # miss rate for demand accesses (Ratio)
system.cpu.icache.demandMissRate::total      0.004365                       # miss rate for demand accesses (Ratio)
system.cpu.icache.overallMissRate::cpu.inst     0.004365                       # miss rate for overall accesses (Ratio)
system.cpu.icache.overallMissRate::total     0.004365                       # miss rate for overall accesses (Ratio)
system.cpu.icache.demandAvgMissLatency::cpu.inst 58870.810693                       # average overall miss latency in ticks ((Tick/Count))
system.cpu.icache.demandAvgMissLatency::total 58870.810693                       # average overall miss latency in ticks ((Tick/Count))
system.cpu.icache.overallAvgMissLatency::cpu.inst 58870.810693                       # average overall miss latency ((Tick/Count))
system.cpu.icache.overallAvgMissLatency::total 58870.810693                       # average overall miss latency ((Tick/Count))
system.cpu.icache.blockedCycles::no_mshrs          420                       # number of cycles access was blocked (Cycle)
system.cpu.icache.blockedCycles::no_targets            0                       # number of cycles access was blocked (Cycle)
system.cpu.icache.blockedCauses::no_mshrs           11                       # number of times access was blocked (Count)
system.cpu.icache.blockedCauses::no_targets            0                       # number of times access was blocked (Count)
system.cpu.icache.avgBlocked::no_mshrs      38.181818                       # average number of cycles each access was blocked ((Cycle/Count))
system.cpu.icache.avgBlocked::no_targets          nan                       # average number of cycles each access was blocked ((Cycle/Count))
system.cpu.icache.writebacks::writebacks            1                       # number of writebacks (Count)
system.cpu.icache.writebacks::total                 1                       # number of writebacks (Count)
system.cpu.icache.demandMshrHits::cpu.inst          582                       # number of demand (read+write) MSHR hits (Count)
system.cpu.icache.demandMshrHits::total           582                       # number of demand (read+write) MSHR hits (Count)
system.cpu.icache.overallMshrHits::cpu.inst          582                       # number of overall MSHR hits (Count)
system.cpu.icache.overallMshrHits::total          582                       # number of overall MSHR hits (Count)
system.cpu.icache.demandMshrMisses::cpu.inst         3327                       # number of demand (read+write) MSHR misses (Count)
system.cpu.icache.demandMshrMisses::total         3327                       # number of demand (read+write) MSHR misses (Count)
system.cpu.icache.overallMshrMisses::cpu.inst         3327                       # number of overall MSHR misses (Count)
system.cpu.icache.overallMshrMisses::total         3327                       # number of overall MSHR misses (Count)
system.cpu.icache.demandMshrMissLatency::cpu.inst    195570000                       # number of demand (read+write) MSHR miss ticks (Tick)
system.cpu.icache.demandMshrMissLatency::total    195570000                       # number of demand (read+write) MSHR miss ticks (Tick)
system.cpu.icache.overallMshrMissLatency::cpu.inst    195570000                       # number of overall MSHR miss ticks (Tick)
system.cpu.icache.overallMshrMissLatency::total    195570000                       # number of overall MSHR miss ticks (Tick)
system.cpu.icache.demandMshrMissRate::cpu.inst     0.003715                       # mshr miss ratio for demand accesses (Ratio)
system.cpu.icache.demandMshrMissRate::total     0.003715                       # mshr miss ratio for demand accesses (Ratio)
system.cpu.icache.overallMshrMissRate::cpu.inst     0.003715                       # mshr miss ratio for overall accesses (Ratio)
system.cpu.icache.overallMshrMissRate::total     0.003715                       # mshr miss ratio for overall accesses (Ratio)
system.cpu.icache.demandAvgMshrMissLatency::cpu.inst 58782.687106                       # average overall mshr miss latency ((Tick/Count))
system.cpu.icache.demandAvgMshrMissLatency::total 58782.687106                       # average overall mshr miss latency ((Tick/Count))
system.cpu.icache.overallAvgMshrMissLatency::cpu.inst 58782.687106                       # average overall mshr miss latency ((Tick/Count))
system.cpu.icache.overallAvgMshrMissLatency::total 58782.687106                       # average overall mshr miss latency ((Tick/Count))
system.cpu.icache.replacements                   3260                       # number of replacements (Count)
system.cpu.icache.ReadReq.hits::cpu.inst       891725                       # number of ReadReq hits (Count)
system.cpu.icache.ReadReq.hits::total          891725                       # number of ReadReq hits (Count)
system.cpu.icache.ReadReq.misses::cpu.inst         3909                       # number of ReadReq misses (Count)
system.cpu.icache.ReadReq.misses::total          3909                       # number of ReadReq misses (Count)
system.cpu.icache.ReadReq.missLatency::cpu.inst    230125999                       # number of ReadReq miss ticks (Tick)
system.cpu.icache.ReadReq.missLatency::total    230125999                       # number of ReadReq miss ticks (Tick)
system.cpu.icache.ReadReq.accesses::cpu.inst       895634                       # number of ReadReq accesses(hits+misses) (Count)
system.cpu.icache.ReadReq.accesses::total       895634                       # number of ReadReq accesses(hits+misses) (Count)
system.cpu.icache.ReadReq.missRate::cpu.inst     0.004365                       # miss rate for ReadReq accesses (Ratio)
system.cpu.icache.ReadReq.missRate::total     0.004365                       # miss rate for ReadReq accesses (Ratio)
system.cpu.icache.ReadReq.avgMissLatency::cpu.inst 58870.810693                       # average ReadReq miss latency ((Tick/Count))
system.cpu.icache.ReadReq.avgMissLatency::total 58870.810693                       # average ReadReq miss latency ((Tick/Count))
system.cpu.icache.ReadReq.mshrHits::cpu.inst          582                       # number of ReadReq MSHR hits (Count)
system.cpu.icache.ReadReq.mshrHits::total          582                       # number of ReadReq MSHR hits (Count)
system.cpu.icache.ReadReq.mshrMisses::cpu.inst         3327                       # number of ReadReq MSHR misses (Count)
system.cpu.icache.ReadReq.mshrMisses::total         3327                       # number of ReadReq MSHR misses (Count)
system.cpu.icache.ReadReq.mshrMissLatency::cpu.inst    195570000                       # number of ReadReq MSHR miss ticks (Tick)
system.cpu.icache.ReadReq.mshrMissLatency::total    195570000                       # number of ReadReq MSHR miss ticks (Tick)
system.cpu.icache.ReadReq.mshrMissRate::cpu.inst     0.003715                       # mshr miss rate for ReadReq accesses (Ratio)
system.cpu.icache.ReadReq.mshrMissRate::total     0.003715                       # mshr miss rate for ReadReq accesses (Ratio)
system.cpu.icache.ReadReq.avgMshrMissLatency::cpu.inst 58782.687106                       # average ReadReq mshr miss latency ((Tick/Count))
system.cpu.icache.ReadReq.avgMshrMissLatency::total 58782.687106                       # average ReadReq mshr miss latency ((Tick/Count))
system.cpu.icache.power_state.pwrStateResidencyTicks::UNDEFINED   2104109000                       # Cumulative time (in ticks) in various power states (Tick)
system.cpu.icache.tags.tagsInUse            63.875793                       # Average ticks per tags in use ((Tick/Count))
system.cpu.icache.tags.totalRefs               895051                       # Total number of references to valid blocks. (Count)
system.cpu.icache.tags.sampledRefs               3326                       # Sample count of references to valid blocks. (Count)
system.cpu.icache.tags.avgRefs             269.107336                       # Average number of references to valid blocks. ((Count/Count))
system.cpu.icache.tags.warmupTick            10436500                       # The tick when the warmup percentage was hit. (Tick)
system.cpu.icache.tags.occupancies::cpu.inst    63.875793                       # Average occupied blocks per tick, per requestor ((Count/Tick))
system.cpu.icache.tags.avgOccs::cpu.inst     0.998059                       # Average percentage of cache occupancy ((Ratio/Tick))
system.cpu.icache.tags.avgOccs::total        0.998059                       # Average percentage of cache occupancy ((Ratio/Tick))
system.cpu.icache.tags.occupanciesTaskId::1024           64                       # Occupied blocks per task id (Count)
system.cpu.icache.tags.ageTaskId_1024::0           63                       # Occupied blocks per task id, per block age (Count)
system.cpu.icache.tags.ageTaskId_1024::1            1                       # Occupied blocks per task id, per block age (Count)
system.cpu.icache.tags.ratioOccsTaskId::1024            1                       # Ratio of occupied blocks and all blocks, per task id (Ratio)
system.cpu.icache.tags.tagAccesses            1794594                       # Number of tag accesses (Count)
system.cpu.icache.tags.dataAccesses           1794594                       # Number of data accesses (Count)
system.cpu.icache.tags.power_state.pwrStateResidencyTicks::UNDEFINED   2104109000                       # Cumulative time (in ticks) in various power states (Tick)
system.cpu.iew.idleCycles                           0                       # Number of cycles IEW is idle (Cycle)
system.cpu.iew.squashCycles                      5273                       # Number of cycles IEW is squashing (Cycle)
system.cpu.iew.blockCycles                      25437                       # Number of cycles IEW is blocking (Cycle)
system.cpu.iew.unblockCycles                     2954                       # Number of cycles IEW is unblocking (Cycle)
system.cpu.iew.dispatchedInsts               10886396                       # Number of instructions dispatched to IQ (Count)
system.cpu.iew.dispSquashedInsts                  371                       # Number of squashed instructions skipped by dispatch (Count)
system.cpu.iew.dispLoadInsts                  2268149                       # Number of dispatched load instructions (Count)
system.cpu.iew.dispStoreInsts                  821229                       # Number of dispatched store instructions (Count)
system.cpu.iew.dispNonSpecInsts                    61                       # Number of dispatched non-speculative instructions (Count)
system.cpu.iew.iqFullEvents                        44                       # Number of times the IQ has become full, causing a stall (Count)
system.cpu.iew.lsqFullEvents                     2888                       # Number of times the LSQ has become full, causing a stall (Count)
system.cpu.iew.memOrderViolationEvents            167                       # Number of memory order violations (Count)
system.cpu.iew.predictedTakenIncorrect           2280                       # Number of branches that were predicted taken incorrectly (Count)
system.cpu.iew.predictedNotTakenIncorrect         3390                       # Number of branches that were predicted not taken incorrectly (Count)
system.cpu.iew.branchMispredicts                 5670                       # Number of branch mispredicts detected at execute (Count)
system.cpu.iew.instsToCommit                 10820301                       # Cumulative count of insts sent to commit (Count)
system.cpu.iew.writebackCount                10818194                       # Cumulative count of insts written-back (Count)
system.cpu.iew.producerInst                   8625984                       # Number of instructions producing a value (Count)
system.cpu.iew.consumerInst                  12528251                       # Number of instructions consuming a value (Count)
system.cpu.iew.wbRate                        2.570730                       # Insts written-back per cycle ((Count/Cycle))
system.cpu.iew.wbFanout                      0.688523                       # Average fanout of values written-back ((Count/Count))
system.cpu.interrupts.clk_domain.clock           8000                       # Clock period in ticks (Tick)
system.cpu.lsq0.forwLoads                     1805887                       # Number of loads that had data forwarded from stores (Count)
system.cpu.lsq0.squashedLoads                   24778                       # Number of loads squashed (Count)
[...]
system.mem_ctrls.dram.numReads::cpu.inst         2371                       # Number of read requests responded to by this memory (Count)
system.mem_ctrls.dram.numReads::cpu.data        10994                       # Number of read requests responded to by this memory (Count)
system.mem_ctrls.dram.numReads::total           13365                       # Number of read requests responded to by this memory (Count)
system.mem_ctrls.dram.numWrites::writebacks         7940                       # Number of write requests responded to by this memory (Count)
system.mem_ctrls.dram.numWrites::total           7940                       # Number of write requests responded to by this memory (Count)
system.mem_ctrls.dram.bwRead::cpu.inst       72117937                       # Total read bandwidth from this memory ((Byte/Second))
system.mem_ctrls.dram.bwRead::cpu.data      334400927                       # Total read bandwidth from this memory ((Byte/Second))
system.mem_ctrls.dram.bwRead::total         406518864                       # Total read bandwidth from this memory ((Byte/Second))
system.mem_ctrls.dram.bwInstRead::cpu.inst     72117937                       # Instruction read bandwidth from this memory ((Byte/Second))
system.mem_ctrls.dram.bwInstRead::total      72117937                       # Instruction read bandwidth from this memory ((Byte/Second))
system.mem_ctrls.dram.bwWrite::writebacks    241508401                       # Write bandwidth from this memory ((Byte/Second))
system.mem_ctrls.dram.bwWrite::total        241508401                       # Write bandwidth from this memory ((Byte/Second))
system.mem_ctrls.dram.bwTotal::writebacks    241508401                       # Total bandwidth to/from this memory ((Byte/Second))
system.mem_ctrls.dram.bwTotal::cpu.inst      72117937                       # Total bandwidth to/from this memory ((Byte/Second))
system.mem_ctrls.dram.bwTotal::cpu.data     334400927                       # Total bandwidth to/from this memory ((Byte/Second))
system.mem_ctrls.dram.bwTotal::total        648027265                       # Total bandwidth to/from this memory ((Byte/Second))
system.mem_ctrls.dram.readBursts                12956                       # Number of DRAM read bursts (Count)
system.mem_ctrls.dram.writeBursts                7917                       # Number of DRAM write bursts (Count)
system.mem_ctrls.dram.perBankRdBursts::0          518                       # Per bank write bursts (Count)
system.mem_ctrls.dram.perBankRdBursts::1          374                       # Per bank write bursts (Count)
system.mem_ctrls.dram.perBankRdBursts::2          353                       # Per bank write bursts (Count)
system.mem_ctrls.dram.perBankRdBursts::3          239                       # Per bank write bursts (Count)
system.mem_ctrls.dram.perBankRdBursts::4          313                       # Per bank write bursts (Count)
system.mem_ctrls.dram.perBankRdBursts::5          382                       # Per bank write bursts (Count)
system.mem_ctrls.dram.perBankRdBursts::6          594                       # Per bank write bursts (Count)
system.mem_ctrls.dram.perBankRdBursts::7          226                       # Per bank write bursts (Count)
system.mem_ctrls.dram.perBankRdBursts::8          982                       # Per bank write bursts (Count)
system.mem_ctrls.dram.perBankRdBursts::9         2045                       # Per bank write bursts (Count)
system.mem_ctrls.dram.perBankRdBursts::10         1815                       # Per bank write bursts (Count)
system.mem_ctrls.dram.perBankRdBursts::11         1639                       # Per bank write bursts (Count)
system.mem_ctrls.dram.perBankRdBursts::12         1434                       # Per bank write bursts (Count)
system.mem_ctrls.dram.perBankRdBursts::13         1102                       # Per bank write bursts (Count)
system.mem_ctrls.dram.perBankRdBursts::14          507                       # Per bank write bursts (Count)
system.mem_ctrls.dram.perBankRdBursts::15          433                       # Per bank write bursts (Count)
system.mem_ctrls.dram.perBankWrBursts::0           45                       # Per bank write bursts (Count)
system.mem_ctrls.dram.perBankWrBursts::1           43                       # Per bank write bursts (Count)
system.mem_ctrls.dram.perBankWrBursts::2           63                       # Per bank write bursts (Count)
system.mem_ctrls.dram.perBankWrBursts::3           58                       # Per bank write bursts (Count)
system.mem_ctrls.dram.perBankWrBursts::4            0                       # Per bank write bursts (Count)
system.mem_ctrls.dram.perBankWrBursts::5          131                       # Per bank write bursts (Count)
system.mem_ctrls.dram.perBankWrBursts::6          303                       # Per bank write bursts (Count)
system.mem_ctrls.dram.perBankWrBursts::7           14                       # Per bank write bursts (Count)
system.mem_ctrls.dram.perBankWrBursts::8          672                       # Per bank write bursts (Count)
system.mem_ctrls.dram.perBankWrBursts::9         1633                       # Per bank write bursts (Count)
system.mem_ctrls.dram.perBankWrBursts::10         1580                       # Per bank write bursts (Count)
system.mem_ctrls.dram.perBankWrBursts::11         1269                       # Per bank write bursts (Count)
system.mem_ctrls.dram.perBankWrBursts::12         1279                       # Per bank write bursts (Count)
system.mem_ctrls.dram.perBankWrBursts::13          671                       # Per bank write bursts (Count)
system.mem_ctrls.dram.perBankWrBursts::14          156                       # Per bank write bursts (Count)
system.mem_ctrls.dram.perBankWrBursts::15            0                       # Per bank write bursts (Count)
system.mem_ctrls.dram.totQLat               118086250                       # Total ticks spent queuing (Tick)
system.mem_ctrls.dram.totBusLat              64780000                       # Total ticks spent in databus transfers (Tick)
system.mem_ctrls.dram.totMemAccLat          361011250                       # Total ticks spent from burst creation until serviced by the DRAM (Tick)
system.mem_ctrls.dram.avgQLat                 9114.41                       # Average queueing delay per DRAM burst ((Tick/Count))
system.mem_ctrls.dram.avgBusLat               5000.00                       # Average bus latency per DRAM burst ((Tick/Count))
system.mem_ctrls.dram.avgMemAccLat           27864.41                       # Average memory access latency per DRAM burst ((Tick/Count))
system.mem_ctrls.dram.readRowHits               11179                       # Number of row buffer hits during reads (Count)
system.mem_ctrls.dram.writeRowHits               7159                       # Number of row buffer hits during writes (Count)
system.mem_ctrls.dram.readRowHitRate            86.28                       # Row buffer hit rate for reads (Ratio)
system.mem_ctrls.dram.writeRowHitRate           90.43                       # Row buffer hit rate for writes (Ratio)
system.mem_ctrls.dram.bytesPerActivate::samples         2528                       # Bytes accessed per row activation (Byte)
system.mem_ctrls.dram.bytesPerActivate::mean   527.696203                       # Bytes accessed per row activation (Byte)
system.mem_ctrls.dram.bytesPerActivate::gmean   336.397687                       # Bytes accessed per row activation (Byte)
system.mem_ctrls.dram.bytesPerActivate::stdev   400.835924                       # Bytes accessed per row activation (Byte)
system.mem_ctrls.dram.bytesPerActivate::0-127          487     19.26%     19.26% # Bytes accessed per row activation (Byte)
system.mem_ctrls.dram.bytesPerActivate::128-255          439     17.37%     36.63% # Bytes accessed per row activation (Byte)
system.mem_ctrls.dram.bytesPerActivate::256-383          253     10.01%     46.64% # Bytes accessed per row activation (Byte)
system.mem_ctrls.dram.bytesPerActivate::384-511          181      7.16%     53.80% # Bytes accessed per row activation (Byte)
system.mem_ctrls.dram.bytesPerActivate::512-639          108      4.27%     58.07% # Bytes accessed per row activation (Byte)
system.mem_ctrls.dram.bytesPerActivate::640-767           78      3.09%     61.16% # Bytes accessed per row activation (Byte)
system.mem_ctrls.dram.bytesPerActivate::768-895           98      3.88%     65.03% # Bytes accessed per row activation (Byte)
system.mem_ctrls.dram.bytesPerActivate::896-1023           60      2.37%     67.41% # Bytes accessed per row activation (Byte)
system.mem_ctrls.dram.bytesPerActivate::1024-1151          824     32.59%    100.00% # Bytes accessed per row activation (Byte)
system.mem_ctrls.dram.bytesPerActivate::total         2528                       # Bytes accessed per row activation (Byte)
system.mem_ctrls.dram.bytesRead                829184                       # Total bytes read (Byte)
system.mem_ctrls.dram.bytesWritten             506688                       # Total bytes written (Byte)
system.mem_ctrls.dram.avgRdBW              394.078444                       # Average DRAM read bandwidth in MiBytes/s ((Byte/Second))
system.mem_ctrls.dram.avgWrBW              240.808817                       # Average DRAM write bandwidth in MiBytes/s ((Byte/Second))
system.mem_ctrls.dram.peakBW                 12800.00                       # Theoretical peak bandwidth in MiByte/s ((Byte/Second))
system.mem_ctrls.dram.busUtil                    4.96                       # Data bus utilization in percentage (Ratio)
system.mem_ctrls.dram.busUtilRead                3.08                       # Data bus utilization in percentage for reads (Ratio)
system.mem_ctrls.dram.busUtilWrite               1.88                       # Data bus utilization in percentage for writes (Ratio)
system.mem_ctrls.dram.pageHitRate               87.86                       # Row buffer hit rate, read and write combined (Ratio)
system.mem_ctrls.dram.power_state.pwrStateResidencyTicks::UNDEFINED   2104109000                       # Cumulative time (in ticks) in various power states (Tick)
system.mem_ctrls.dram.rank0.actEnergy         5062260                       # Energy for activate commands per rank (pJ) (Joule)
system.mem_ctrls.dram.rank0.preEnergy         2679270                       # Energy for precharge commands per rank (pJ) (Joule)
system.mem_ctrls.dram.rank0.readEnergy       21412860                       # Energy for read commands per rank (pJ) (Joule)
system.mem_ctrls.dram.rank0.writeEnergy       3429540                       # Energy for write commands per rank (pJ) (Joule)
system.mem_ctrls.dram.rank0.refreshEnergy 165952800.000000                       # Energy for refresh commands per rank (pJ) (Joule)
system.mem_ctrls.dram.rank0.actBackEnergy    234330990                       # Energy for active background per rank (pJ) (Joule)
system.mem_ctrls.dram.rank0.preBackEnergy    610646880                       # Energy for precharge background per rank (pJ) (Joule)
system.mem_ctrls.dram.rank0.actPowerDownEnergy            0                       # Energy for active power-down per rank (pJ) (Joule)
system.mem_ctrls.dram.rank0.prePowerDownEnergy            0                       # Energy for precharge power-down per rank (pJ) (Joule)
system.mem_ctrls.dram.rank0.selfRefreshEnergy            0                       # Energy for self refresh per rank (pJ) (Joule)
system.mem_ctrls.dram.rank0.totalEnergy    1043514600                       # Total energy per rank (pJ) (Joule)
system.mem_ctrls.dram.rank0.averagePower   495.941322                       # Core power per rank (mW) (Watt)
system.mem_ctrls.dram.rank0.totalIdleTime            0                       # Total Idle time Per DRAM Rank (Tick)
system.mem_ctrls.dram.rank0.pwrStateTime::IDLE   1585000750                       # Time in different power states (Tick)
system.mem_ctrls.dram.rank0.pwrStateTime::REF     70200000                       # Time in different power states (Tick)
system.mem_ctrls.dram.rank0.pwrStateTime::SREF            0                       # Time in different power states (Tick)
system.mem_ctrls.dram.rank0.pwrStateTime::PRE_PDN            0                       # Time in different power states (Tick)
system.mem_ctrls.dram.rank0.pwrStateTime::ACT    448908250                       # Time in different power states (Tick)
system.mem_ctrls.dram.rank0.pwrStateTime::ACT_PDN            0                       # Time in different power states (Tick)
system.mem_ctrls.dram.rank1.actEnergy        13037640                       # Energy for activate commands per rank (pJ) (Joule)
system.mem_ctrls.dram.rank1.preEnergy         6914490                       # Energy for precharge commands per rank (pJ) (Joule)
system.mem_ctrls.dram.rank1.readEnergy       71092980                       # Energy for read commands per rank (pJ) (Joule)
system.mem_ctrls.dram.rank1.writeEnergy      37897200                       # Energy for write commands per rank (pJ) (Joule)
system.mem_ctrls.dram.rank1.refreshEnergy 165952800.000000                       # Energy for refresh commands per rank (pJ) (Joule)
system.mem_ctrls.dram.rank1.actBackEnergy    796287720                       # Energy for active background per rank (pJ) (Joule)
system.mem_ctrls.dram.rank1.preBackEnergy    137420160                       # Energy for precharge background per rank (pJ) (Joule)
system.mem_ctrls.dram.rank1.actPowerDownEnergy            0                       # Energy for active power-down per rank (pJ) (Joule)
system.mem_ctrls.dram.rank1.prePowerDownEnergy            0                       # Energy for precharge power-down per rank (pJ) (Joule)
system.mem_ctrls.dram.rank1.selfRefreshEnergy            0                       # Energy for self refresh per rank (pJ) (Joule)
system.mem_ctrls.dram.rank1.totalEnergy    1228602990                       # Total energy per rank (pJ) (Joule)
system.mem_ctrls.dram.rank1.averagePower   583.906532                       # Core power per rank (mW) (Watt)
system.mem_ctrls.dram.rank1.totalIdleTime            0                       # Total Idle time Per DRAM Rank (Tick)
system.mem_ctrls.dram.rank1.pwrStateTime::IDLE    349446250                       # Time in different power states (Tick)
system.mem_ctrls.dram.rank1.pwrStateTime::REF     70200000                       # Time in different power states (Tick)
system.mem_ctrls.dram.rank1.pwrStateTime::SREF            0                       # Time in different power states (Tick)
system.mem_ctrls.dram.rank1.pwrStateTime::PRE_PDN            0                       # Time in different power states (Tick)
system.mem_ctrls.dram.rank1.pwrStateTime::ACT   1684462750                       # Time in different power states (Tick)
system.mem_ctrls.dram.rank1.pwrStateTime::ACT_PDN            0                       # Time in different power states (Tick)
system.mem_ctrls.power_state.pwrStateResidencyTicks::UNDEFINED   2104109000                       # Cumulative time (in ticks) in various power states (Tick)
system.membus.transDist::ReadResp                8436                       # Transaction distribution (Count)
system.membus.transDist::WritebackDirty          7940                       # Transaction distribution (Count)
system.membus.transDist::CleanEvict              4913                       # Transaction distribution (Count)
system.membus.transDist::ReadExReq               4929                       # Transaction distribution (Count)
system.membus.transDist::ReadExResp              4929                       # Transaction distribution (Count)
system.membus.transDist::ReadSharedReq           8437                       # Transaction distribution (Count)
system.membus.pktCount_system.l2cache.mem_side_port::system.mem_ctrls.port        39584                       # Packet count per connected requestor and responder (Count)
system.membus.pktCount_system.l2cache.mem_side_port::total        39584                       # Packet count per connected requestor and responder (Count)
system.membus.pktCount::total                   39584                       # Packet count per connected requestor and responder (Count)
system.membus.pktSize_system.l2cache.mem_side_port::system.mem_ctrls.port      1363520                       # Cumulative packet size per connected requestor and responder (Byte)
system.membus.pktSize_system.l2cache.mem_side_port::total      1363520                       # Cumulative packet size per connected requestor and responder (Byte)
system.membus.pktSize::total                  1363520                       # Cumulative packet size per connected requestor and responder (Byte)
system.membus.snoops                                0                       # Total snoops (Count)
system.membus.snoopTraffic                          0                       # Total snoop traffic (Byte)
system.membus.snoopFanout::samples              13366                       # Request fanout histogram (Count)
system.membus.snoopFanout::mean                     0                       # Request fanout histogram (Count)
system.membus.snoopFanout::stdev                    0                       # Request fanout histogram (Count)
system.membus.snoopFanout::underflows               0      0.00%      0.00% # Request fanout histogram (Count)
system.membus.snoopFanout::0                    13366    100.00%    100.00% # Request fanout histogram (Count)
system.membus.snoopFanout::1                        0      0.00%    100.00% # Request fanout histogram (Count)
system.membus.snoopFanout::overflows                0      0.00%    100.00% # Request fanout histogram (Count)
system.membus.snoopFanout::min_value                0                       # Request fanout histogram (Count)
system.membus.snoopFanout::max_value                0                       # Request fanout histogram (Count)
system.membus.snoopFanout::total                13366                       # Request fanout histogram (Count)
system.membus.power_state.pwrStateResidencyTicks::UNDEFINED   2104109000                       # Cumulative time (in ticks) in various power states (Tick)
system.membus.reqLayer2.occupancy            28989500                       # Layer occupancy (ticks) (Tick)
system.membus.reqLayer2.utilization               0.0                       # Layer utilization (Ratio)
system.membus.respLayer1.occupancy           36298500                       # Layer occupancy (ticks) (Tick)
system.membus.respLayer1.utilization              0.0                       # Layer utilization (Ratio)
system.membus.snoop_filter.totRequests          26219                       # Total number of requests made to the snoop filter. (Count)
system.membus.snoop_filter.hitSingleRequests        12854                       # Number of requests hitting in the snoop filter with a single holder of the requested data. (Count)
system.membus.snoop_filter.hitMultiRequests            0                       # Number of requests hitting in the snoop filter with multiple (>1) holders of the requested data. (Count)
system.membus.snoop_filter.totSnoops                0                       # Total number of snoops made to the snoop filter. (Count)
system.membus.snoop_filter.hitSingleSnoops            0                       # Number of snoops hitting in the snoop filter with a single holder of the requested data. (Count)
system.membus.snoop_filter.hitMultiSnoops            0                       # Number of snoops hitting in the snoop filter with multiple (>1) holders of the requested data. (Count)
system.workload.inst.arm                            0                       # number of arm instructions executed (Count)
system.workload.inst.quiesce                        0                       # number of quiesce instructions executed (Count)

---------- End Simulation Statistics   ----------
