
---------- Begin Simulation Statistics ----------
simSeconds                                   0.004390                       # Number of seconds simulated (Second)
simTicks                                   4389926000                       # Number of ticks simulated (Tick)
finalTick                                  4389926000                       # Number of ticks from beginning of simulation (restored from checkpoints and never reset) (Tick)
simFreq                                  1000000000000                       # The number of ticks per simulated second ((Tick/Second))
hostSeconds                                     26.85                       # Real time elapsed on the host (Second)
hostTickRate                                163495967                       # The number of ticks simulated per host second (ticks/s) ((Tick/Second))
hostMemory                                     924036                       # Number of bytes of host memory used (Byte)
simInsts                                      6436803                       # Number of instructions simulated (Count)
simOps                                       10693060                       # Number of ops (including micro ops) simulated (Count)
hostInstRate                                   239728                       # Simulator instruction rate (inst/s) ((Count/Second))
hostOpRate                                     398245                       # Simulator op (including micro ops) rate (op/s) ((Count/Second))
system.clk_domain.clock                           500                       # Clock period in ticks (Tick)
system.clk_domain.voltage_domain.voltage            1                       # Voltage in Volts (Volt)
system.cpu.numCycles                          8779853                       # Number of cpu cycles simulated (Cycle)
system.cpu.numWorkItemsStarted                      0                       # Number of work items this cpu started (Count)
system.cpu.numWorkItemsCompleted                    0                       # Number of work items this cpu completed (Count)
system.cpu.instsAdded                        10727524                       # Number of instructions added to the IQ (excludes non-spec) (Count)
system.cpu.nonSpecInstsAdded                       76                       # Number of non-speculative instructions added to the IQ (Count)
system.cpu.instsIssued                       10721272                       # Number of instructions issued (Count)
system.cpu.squashedInstsIssued                      2                       # Number of squashed instructions issued (Count)
system.cpu.squashedInstsExamined                34531                       # Number of squashed instructions iterated over during squash; mainly for profiling (Count)
system.cpu.squashedOperandsExamined             41721                       # Number of squashed operands that are examined and possibly removed from graph (Count)
system.cpu.squashedNonSpecRemoved                  52                       # Number of squashed non-spec instructions that were removed (Count)
system.cpu.numIssuedDist::samples             8564817                       # Number of insts issued each cycle (Count)
system.cpu.numIssuedDist::mean               1.251781                       # Number of insts issued each cycle (Count)
system.cpu.numIssuedDist::stdev              1.127000                       # Number of insts issued each cycle (Count)
system.cpu.numIssuedDist::underflows                0      0.00%      0.00% # Number of insts issued each cycle (Count)
system.cpu.numIssuedDist::0                   2593818     30.28%     30.28% # Number of insts issued each cycle (Count)
system.cpu.numIssuedDist::1                   2796531     32.65%     62.94% # Number of insts issued each cycle (Count)
system.cpu.numIssuedDist::2                   1989429     23.23%     86.16% # Number of insts issued each cycle (Count)
system.cpu.numIssuedDist::3                    859618     10.04%     96.20% # Number of insts issued each cycle (Count)
system.cpu.numIssuedDist::4                    264919      3.09%     99.29% # Number of insts issued each cycle (Count)
system.cpu.numIssuedDist::5                     56987      0.67%     99.96% # Number of insts issued each cycle (Count)
system.cpu.numIssuedDist::6                      2742      0.03%     99.99% # Number of insts issued each cycle (Count)
system.cpu.numIssuedDist::7                       218      0.00%     99.99% # Number of insts issued each cycle (Count)
system.cpu.numIssuedDist::8                       555      0.01%    100.00% # Number of insts issued each cycle (Count)
system.cpu.numIssuedDist::overflows                 0      0.00%    100.00% # Number of insts issued each cycle (Count)
system.cpu.numIssuedDist::min_value                 0                       # Number of insts issued each cycle (Count)
system.cpu.numIssuedDist::max_value                 8                       # Number of insts issued each cycle (Count)
system.cpu.numIssuedDist::total               8564817                       # Number of insts issued each cycle (Count)
system.cpu.statFuBusy::No_OpClass                   0      0.00%      0.00% # attempts to use FU when none available (Count)
system.cpu.statFuBusy::IntAlu                       0      0.00%      0.00% # attempts to use FU when none available (Count)
system.cpu.statFuBusy::IntMult                      0      0.00%      0.00% # attempts to use FU when none available (Count)
system.cpu.statFuBusy::IntDiv                       0      0.00%      0.00% # attempts to use FU when none available (Count)
system.cpu.statFuBusy::FloatAdd                     0      0.00%      0.00% # attempts to use FU when none available (Count)
system.cpu.statFuBusy::FloatCmp                     0      0.00%      0.00% # attempts to use FU when none available (Count)
system.cpu.statFuBusy::FloatCvt                     0      0.00%      0.00% # attempts to use FU when none available (Count)
system.cpu.statFuBusy::FloatMult                    0      0.00%      0.00% # attempts to use FU when none available (Count)
system.cpu.statFuBusy::FloatMultAcc                 0      0.00%      0.00% # attempts to use FU when none available (Count)
system.cpu.statFuBusy::FloatDiv                     0      0.00%      0.00% # attempts to use FU when none available (Count)
system.cpu.statFuBusy::FloatMisc                    0      0.00%      0.00% # attempts to use FU when none available (Count)
system.cpu.statFuBusy::FloatSqrt                    0      0.00%      0.00% # attempts to use FU when none available (Count)
system.cpu.statFuBusy::SimdAdd                      0      0.00%      0.00% # attempts to use FU when none available (Count)
system.cpu.statFuBusy::SimdAddAcc                   0      0.00%      0.00% # attempts to use FU when none available (Count)
system.cpu.statFuBusy::SimdAlu                     19      8.44%      8.44% # attempts to use FU when none available (Count)
system.cpu.statFuBusy::SimdCmp                      0      0.00%      8.44% # attempts to use FU when none available (Count)
system.cpu.statFuBusy::SimdCvt                      0      0.00%      8.44% # attempts to use FU when none available (Count)
system.cpu.statFuBusy::SimdMisc                     2      0.89%      9.33% # attempts to use FU when none available (Count)
system.cpu.statFuBusy::SimdMult                     0      0.00%      9.33% # attempts to use FU when none available (Count)
system.cpu.statFuBusy::SimdMultAcc                  0      0.00%      9.33% # attempts to use FU when none available (Count)
system.cpu.statFuBusy::SimdShift                    0      0.00%      9.33% # attempts to use FU when none available (Count)
system.cpu.statFuBusy::SimdShiftAcc                 0      0.00%      9.33% # attempts to use FU when none available (Count)
system.cpu.statFuBusy::SimdDiv                      0      0.00%      9.33% # attempts to use FU when none available (Count)
system.cpu.statFuBusy::SimdSqrt                     0      0.00%      9.33% # attempts to use FU when none available (Count)
system.cpu.statFuBusy::SimdFloatAdd                 0      0.00%      9.33% # attempts to use FU when none available (Count)
system.cpu.statFuBusy::SimdFloatAlu                 0      0.00%      9.33% # attempts to use FU when none available (Count)
system.cpu.statFuBusy::SimdFloatCmp                 0      0.00%      9.33% # attempts to use FU when none available (Count)
system.cpu.statFuBusy::SimdFloatCvt                 0      0.00%      9.33% # attempts to use FU when none available (Count)
system.cpu.statFuBusy::SimdFloatDiv                 0      0.00%      9.33% # attempts to use FU when none available (Count)
system.cpu.statFuBusy::SimdFloatMisc                0      0.00%      9.33% # attempts to use FU when none available (Count)
system.cpu.statFuBusy::SimdFloatMult                0      0.00%      9.33% # attempts to use FU when none available (Count)
system.cpu.statFuBusy::SimdFloatMultAcc             0      0.00%      9.33% # attempts to use FU when none available (Count)
system.cpu.statFuBusy::SimdFloatSqrt                0      0.00%      9.33% # attempts to use FU when none available (Count)
system.cpu.statFuBusy::SimdReduceAdd                0      0.00%      9.33% # attempts to use FU when none available (Count)
system.cpu.statFuBusy::SimdReduceAlu                0      0.00%      9.33% # attempts to use FU when none available (Count)
system.cpu.statFuBusy::SimdReduceCmp                0      0.00%      9.33% # attempts to use FU when none available (Count)
system.cpu.statFuBusy::SimdFloatReduceAdd            0      0.00%      9.33% # attempts to use FU when none available (Count)
system.cpu.statFuBusy::SimdFloatReduceCmp            0      0.00%      9.33% # attempts to use FU when none available (Count)
system.cpu.statFuBusy::SimdAes                      0      0.00%      9.33% # attempts to use FU when none available (Count)
system.cpu.statFuBusy::SimdAesMix                   0      0.00%      9.33% # attempts to use FU when none available (Count)
system.cpu.statFuBusy::SimdSha1Hash                 0      0.00%      9.33% # attempts to use FU when none available (Count)
system.cpu.statFuBusy::SimdSha1Hash2                0      0.00%      9.33% # attempts to use FU when none available (Count)
system.cpu.statFuBusy::SimdSha256Hash               0      0.00%      9.33% # attempts to use FU when none available (Count)
system.cpu.statFuBusy::SimdSha256Hash2              0      0.00%      9.33% # attempts to use FU when none available (Count)
system.cpu.statFuBusy::SimdShaSigma2                0      0.00%      9.33% # attempts to use FU when none available (Count)
system.cpu.statFuBusy::SimdShaSigma3                0      0.00%      9.33% # attempts to use FU when none available (Count)
system.cpu.statFuBusy::SimdPredAlu                  0      0.00%      9.33% # attempts to use FU when none available (Count)
system.cpu.statFuBusy::MemRead                     89     39.56%     48.89% # attempts to use FU when none available (Count)
system.cpu.statFuBusy::MemWrite                    74     32.89%     81.78% # attempts to use FU when none available (Count)
system.cpu.statFuBusy::FloatMemRead                 7      3.11%     84.89% # attempts to use FU when none available (Count)
system.cpu.statFuBusy::FloatMemWrite               34     15.11%    100.00% # attempts to use FU when none available (Count)
system.cpu.statFuBusy::IprAccess                    0      0.00%    100.00% # attempts to use FU when none available (Count)
system.cpu.statFuBusy::InstPrefetch                 0      0.00%    100.00% # attempts to use FU when none available (Count)
system.cpu.statIssuedInstType_0::No_OpClass         1773      0.02%      0.02% # Number of instructions issued per FU type, per thread (Count)
system.cpu.statIssuedInstType_0::IntAlu       7350964     68.56%     68.58% # Number of instructions issued per FU type, per thread (Count)
system.cpu.statIssuedInstType_0::IntMult       300076      2.80%     71.38% # Number of instructions issued per FU type, per thread (Count)
system.cpu.statIssuedInstType_0::IntDiv          1697      0.02%     71.40% # Number of instructions issued per FU type, per thread (Count)
system.cpu.statIssuedInstType_0::FloatAdd          153      0.00%     71.40% # Number of instructions issued per FU type, per thread (Count)
system.cpu.statIssuedInstType_0::FloatCmp            0      0.00%     71.40% # Number of instructions issued per FU type, per thread (Count)
system.cpu.statIssuedInstType_0::FloatCvt           32      0.00%     71.40% # Number of instructions issued per FU type, per thread (Count)
system.cpu.statIssuedInstType_0::FloatMult            0      0.00%     71.40% # Number of instructions issued per FU type, per thread (Count)
system.cpu.statIssuedInstType_0::FloatMultAcc            0      0.00%     71.40% # Number of instructions issued per FU type, per thread (Count)
system.cpu.statIssuedInstType_0::FloatDiv            0      0.00%     71.40% # Number of instructions issued per FU type, per thread (Count)
system.cpu.statIssuedInstType_0::FloatMisc            0      0.00%     71.40% # Number of instructions issued per FU type, per thread (Count)
system.cpu.statIssuedInstType_0::FloatSqrt            0      0.00%     71.40% # Number of instructions issued per FU type, per thread (Count)
system.cpu.statIssuedInstType_0::SimdAdd          376      0.00%     71.40% # Number of instructions issued per FU type, per thread (Count)
system.cpu.statIssuedInstType_0::SimdAddAcc            0      0.00%     71.40% # Number of instructions issued per FU type, per thread (Count)
system.cpu.statIssuedInstType_0::SimdAlu          880      0.01%     71.41% # Number of instructions issued per FU type, per thread (Count)
system.cpu.statIssuedInstType_0::SimdCmp            0      0.00%     71.41% # Number of instructions issued per FU type, per thread (Count)
system.cpu.statIssuedInstType_0::SimdCvt         1086      0.01%     71.42% # Number of instructions issued per FU type, per thread (Count)
system.cpu.statIssuedInstType_0::SimdMisc          803      0.01%     71.43% # Number of instructions issued per FU type, per thread (Count)
system.cpu.statIssuedInstType_0::SimdMult            0      0.00%     71.43% # Number of instructions issued per FU type, per thread (Count)
system.cpu.statIssuedInstType_0::SimdMultAcc            0      0.00%     71.43% # Number of instructions issued per FU type, per thread (Count)
system.cpu.statIssuedInstType_0::SimdShift          305      0.00%     71.43% # Number of instructions issued per FU type, per thread (Count)
system.cpu.statIssuedInstType_0::SimdShiftAcc            0      0.00%     71.43% # Number of instructions issued per FU type, per thread (Count)
system.cpu.statIssuedInstType_0::SimdDiv            0      0.00%     71.43% # Number of instructions issued per FU type, per thread (Count)
system.cpu.statIssuedInstType_0::SimdSqrt            0      0.00%     71.43% # Number of instructions issued per FU type, per thread (Count)
system.cpu.statIssuedInstType_0::SimdFloatAdd            0      0.00%     71.43% # Number of instructions issued per FU type, per thread (Count)
system.cpu.statIssuedInstType_0::SimdFloatAlu            0      0.00%     71.43% # Number of instructions issued per FU type, per thread (Count)
system.cpu.statIssuedInstType_0::SimdFloatCmp            0      0.00%     71.43% # Number of instructions issued per FU type, per thread (Count)
system.cpu.statIssuedInstType_0::SimdFloatCvt            0      0.00%     71.43% # Number of instructions issued per FU type, per thread (Count)
system.cpu.statIssuedInstType_0::SimdFloatDiv            0      0.00%     71.43% # Number of instructions issued per FU type, per thread (Count)
system.cpu.statIssuedInstType_0::SimdFloatMisc            0      0.00%     71.43% # Number of instructions issued per FU type, per thread (Count)
system.cpu.statIssuedInstType_0::SimdFloatMult            0      0.00%     71.43% # Number of instructions issued per FU type, per thread (Count)
system.cpu.statIssuedInstType_0::SimdFloatMultAcc            0      0.00%     71.43% # Number of instructions issued per FU type, per thread (Count)
system.cpu.statIssuedInstType_0::SimdFloatSqrt            0      0.00%     71.43% # Number of instructions issued per FU type, per thread (Count)
system.cpu.statIssuedInstType_0::SimdReduceAdd            0      0.00%     71.43% # Number of instructions issued per FU type, per thread (Count)
system.cpu.statIssuedInstType_0::SimdReduceAlu            0      0.00%     71.43% # Number of instructions issued per FU type, per thread (Count)
system.cpu.statIssuedInstType_0::SimdReduceCmp            0      0.00%     71.43% # Number of instructions issued per FU type, per thread (Count)
system.cpu.statIssuedInstType_0::SimdFloatReduceAdd            0      0.00%     71.43% # Number of instructions issued per FU type, per thread (Count)
system.cpu.statIssuedInstType_0::SimdFloatReduceCmp            0      0.00%     71.43% # Number of instructions issued per FU type, per thread (Count)
system.cpu.statIssuedInstType_0::SimdAes            0      0.00%     71.43% # Number of instructions issued per FU type, per thread (Count)
system.cpu.statIssuedInstType_0::SimdAesMix            0      0.00%     71.43% # Number of instructions issued per FU type, per thread (Count)
system.cpu.statIssuedInstType_0::SimdSha1Hash            0      0.00%     71.43% # Number of instructions issued per FU type, per thread (Count)
system.cpu.statIssuedInstType_0::SimdSha1Hash2            0      0.00%     71.43% # Number of instructions issued per FU type, per thread (Count)
system.cpu.statIssuedInstType_0::SimdSha256Hash            0      0.00%     71.43% # Number of instructions issued per FU type, per thread (Count)
system.cpu.statIssuedInstType_0::SimdSha256Hash2            0      0.00%     71.43% # Number of instructions issued per FU type, per thread (Count)
system.cpu.statIssuedInstType_0::SimdShaSigma2            0      0.00%     71.43% # Number of instructions issued per FU type, per thread (Count)
system.cpu.statIssuedInstType_0::SimdShaSigma3            0      0.00%     71.43% # Number of instructions issued per FU type, per thread (Count)
system.cpu.statIssuedInstType_0::SimdPredAlu            0      0.00%     71.43% # Number of instructions issued per FU type, per thread (Count)
system.cpu.statIssuedInstType_0::MemRead      2246248     20.95%     92.38% # Number of instructions issued per FU type, per thread (Count)
system.cpu.statIssuedInstType_0::MemWrite       814972      7.60%     99.98% # Number of instructions issued per FU type, per thread (Count)
system.cpu.statIssuedInstType_0::FloatMemRead         1318      0.01%     99.99% # Number of instructions issued per FU type, per thread (Count)
system.cpu.statIssuedInstType_0::FloatMemWrite          589      0.01%    100.00% # Number of instructions issued per FU type, per thread (Count)
system.cpu.statIssuedInstType_0::IprAccess            0      0.00%    100.00% # Number of instructions issued per FU type, per thread (Count)
system.cpu.statIssuedInstType_0::InstPrefetch            0      0.00%    100.00% # Number of instructions issued per FU type, per thread (Count)
system.cpu.statIssuedInstType_0::total       10721272                       # Number of instructions issued per FU type, per thread (Count)
system.cpu.issueRate                         1.221122                       # Inst issue rate ((Count/Cycle))
system.cpu.fuBusy                                 225                       # FU busy when requested (Count)
system.cpu.fuBusyRate                        0.000021                       # FU busy rate (busy events/executed inst) ((Count/Count))
system.cpu.intInstQueueReads                 29996127                       # Number of integer instruction queue reads (Count)
system.cpu.intInstQueueWrites                10755418                       # Number of integer instruction queue writes (Count)
system.cpu.intInstQueueWakeupAccesses        10709892                       # Number of integer instruction queue wakeup accesses (Count)
system.cpu.fpInstQueueReads                     11461                       # Number of floating instruction queue reads (Count)
system.cpu.fpInstQueueWrites                     6757                       # Number of floating instruction queue writes (Count)
system.cpu.fpInstQueueWakeupAccesses             5435                       # Number of floating instruction queue wakeup accesses (Count)
system.cpu.vecInstQueueReads                        0                       # Number of vector instruction queue reads (Count)
system.cpu.vecInstQueueWrites                       0                       # Number of vector instruction queue writes (Count)
system.cpu.vecInstQueueWakeupAccesses               0                       # Number of vector instruction queue wakeup accesses (Count)
system.cpu.intAluAccesses                    10713963                       # Number of integer alu accesses (Count)
system.cpu.fpAluAccesses                         5761                       # Number of floating point alu accesses (Count)
system.cpu.vecAluAccesses                           0                       # Number of vector alu accesses (Count)
system.cpu.numInsts                          10717231                       # Number of executed instructions (Count)
system.cpu.numLoadInsts                       2247022                       # Number of load instructions executed (Count)
system.cpu.numSquashedInsts                      4041                       # Number of squashed instructions skipped in execute (Count)
system.cpu.numSwp                                   0                       # Number of swp insts executed (Count)
system.cpu.numNop                                   0                       # Number of nop insts executed (Count)
system.cpu.numRefs                            3062451                       # Number of memory reference insts executed (Count)
system.cpu.numBranches                         643360                       # Number of branches executed (Count)
system.cpu.numStoreInsts                       815429                       # Number of stores executed (Count)
system.cpu.numRate                           1.220662                       # Inst execution rate ((Count/Cycle))
system.cpu.timesIdled                            2482                       # Number of times that the entire CPU went into an idle state and unscheduled itself (Count)
system.cpu.idleCycles                          215036                       # Total number of cycles that the CPU has spent unscheduled due to idling (Cycle)
system.cpu.committedInsts                     6436803                       # Number of Instructions Simulated (Count)
system.cpu.committedOps                      10693060                       # Number of Ops (including micro ops) Simulated (Count)
system.cpu.cpi                               1.364008                       # CPI: Cycles Per Instruction ((Cycle/Count))
system.cpu.totalCpi                          1.364008                       # CPI: Total CPI of All Threads ((Cycle/Count))
system.cpu.ipc                               0.733133                       # IPC: Instructions Per Cycle ((Count/Cycle))
system.cpu.totalIpc                          0.733133                       # IPC: Total IPC of All Threads ((Count/Cycle))
system.cpu.intRegfileReads                   13573877                       # Number of integer regfile reads (Count)
system.cpu.intRegfileWrites                   8918593                       # Number of integer regfile writes (Count)
system.cpu.fpRegfileReads                        8496                       # Number of floating regfile reads (Count)
system.cpu.fpRegfileWrites                       4282                       # Number of floating regfile writes (Count)
system.cpu.ccRegfileReads                     2427946                       # number of cc regfile reads (Count)
system.cpu.ccRegfileWrites                    3047437                       # number of cc regfile writes (Count)
system.cpu.miscRegfileReads                   4800154                       # number of misc regfile reads (Count)
system.cpu.miscRegfileWrites                       18                       # number of misc regfile writes (Count)
system.cpu.MemDepUnit__0.insertedLoads        2248231                       # Number of loads inserted to the mem dependence unit. (Count)
system.cpu.MemDepUnit__0.insertedStores        815831                       # Number of stores inserted to the mem dependence unit. (Count)
system.cpu.MemDepUnit__0.conflictingLoads       455553                       # Number of conflicting loads. (Count)
system.cpu.MemDepUnit__0.conflictingStores           32                       # Number of conflicting stores. (Count)
system.cpu.MemDepUnit__1.insertedLoads              0                       # Number of loads inserted to the mem dependence unit. (Count)
system.cpu.MemDepUnit__1.insertedStores             0                       # Number of stores inserted to the mem dependence unit. (Count)
system.cpu.MemDepUnit__1.conflictingLoads            0                       # Number of conflicting loads. (Count)
system.cpu.MemDepUnit__1.conflictingStores            0                       # Number of conflicting stores. (Count)
system.cpu.MemDepUnit__2.insertedLoads              0                       # Number of loads inserted to the mem dependence unit. (Count)
system.cpu.MemDepUnit__2.insertedStores             0                       # Number of stores inserted to the mem dependence unit. (Count)
system.cpu.MemDepUnit__2.conflictingLoads            0                       # Number of conflicting loads. (Count)
system.cpu.MemDepUnit__2.conflictingStores            0                       # Number of conflicting stores. (Count)
system.cpu.MemDepUnit__3.insertedLoads              0                       # Number of loads inserted to the mem dependence unit. (Count)
system.cpu.MemDepUnit__3.insertedStores             0                       # Number of stores inserted to the mem dependence unit. (Count)
system.cpu.MemDepUnit__3.conflictingLoads            0                       # Number of conflicting loads. (Count)
system.cpu.MemDepUnit__3.conflictingStores            0                       # Number of conflicting stores. (Count)
system.cpu.branchPred.lookups                  666418                       # Number of BP lookups (Count)
system.cpu.branchPred.condPredicted            454420                       # Number of conditional branches predicted (Count)
system.cpu.branchPred.condIncorrect              4733                       # Number of conditional branches incorrect (Count)
system.cpu.branchPred.BTBLookups               475906                       # Number of BTB lookups (Count)
system.cpu.branchPred.BTBHits                  474872                       # Number of BTB hits (Count)
system.cpu.branchPred.BTBHitRatio            0.997827                       # BTB Hit Ratio (Ratio)
system.cpu.branchPred.RASUsed                  101784                       # Number of times the RAS was used to get a target. (Count)
system.cpu.branchPred.RASIncorrect                  1                       # Number of incorrect RAS predictions. (Count)
system.cpu.branchPred.indirectLookups             821                       # Number of indirect predictor lookups. (Count)
system.cpu.branchPred.indirectHits                265                       # Number of indirect target hits. (Count)
system.cpu.branchPred.indirectMisses              556                       # Number of indirect misses. (Count)
system.cpu.branchPred.indirectMispredicted          253                       # Number of mispredicted indirect branches. (Count)
system.cpu.branchPred.loop_predictor.correct       426347                       # Number of times the loop predictor is the provider and the prediction is correct (Count)
system.cpu.branchPred.loop_predictor.wrong         8706                       # Number of times the loop predictor is the provider and the prediction is wrong (Count)
system.cpu.branchPred.tage.longestMatchProviderCorrect       354545                       # Number of times TAGE Longest Match is the provider and the prediction is correct (Count)
system.cpu.branchPred.tage.altMatchProviderCorrect         1286                       # Number of times TAGE Alt Match is the provider and the prediction is correct (Count)
system.cpu.branchPred.tage.bimodalAltMatchProviderCorrect          338                       # Number of times TAGE Alt Match is the bimodal and it is the provider and the prediction is correct (Count)
system.cpu.branchPred.tage.bimodalProviderCorrect        35087                       # Number of times there are no hits on the TAGE tables and the bimodal prediction is correct (Count)
system.cpu.branchPred.tage.longestMatchProviderWrong         1888                       # Number of times TAGE Longest Match is the provider and the prediction is wrong (Count)
system.cpu.branchPred.tage.altMatchProviderWrong          783                       # Number of times TAGE Alt Match is the provider and the prediction is wrong (Count)
system.cpu.branchPred.tage.bimodalAltMatchProviderWrong          143                       # Number of times TAGE Alt Match is the bimodal and it is the provider and the prediction is wrong (Count)
system.cpu.branchPred.tage.bimodalProviderWrong          979                       # Number of times there are no hits on the TAGE tables and the bimodal prediction is wrong (Count)
system.cpu.branchPred.tage.altMatchProviderWouldHaveHit          473                       # Number of times TAGE Longest Match is the provider, the prediction is wrong and Alt Match prediction was correct (Count)
system.cpu.branchPred.tage.longestMatchProviderWouldHaveHit          537                       # Number of times TAGE Alt Match is the provider, the prediction is wrong and Longest Match prediction was correct (Count)
system.cpu.branchPred.tage.longestMatchProvider::0            0                       # TAGE provider for longest match (Count)
system.cpu.branchPred.tage.longestMatchProvider::1        15578                       # TAGE provider for longest match (Count)
system.cpu.branchPred.tage.longestMatchProvider::2         1609                       # TAGE provider for longest match (Count)
system.cpu.branchPred.tage.longestMatchProvider::3        30791                       # TAGE provider for longest match (Count)
system.cpu.branchPred.tage.longestMatchProvider::4        21218                       # TAGE provider for longest match (Count)
system.cpu.branchPred.tage.longestMatchProvider::5        14307                       # TAGE provider for longest match (Count)
system.cpu.branchPred.tage.longestMatchProvider::6        20393                       # TAGE provider for longest match (Count)
system.cpu.branchPred.tage.longestMatchProvider::7         4551                       # TAGE provider for longest match (Count)
system.cpu.branchPred.tage.longestMatchProvider::8        17463                       # TAGE provider for longest match (Count)
system.cpu.branchPred.tage.longestMatchProvider::9         9875                       # TAGE provider for longest match (Count)
system.cpu.branchPred.tage.longestMatchProvider::10        15926                       # TAGE provider for longest match (Count)
system.cpu.branchPred.tage.longestMatchProvider::11        17682                       # TAGE provider for longest match (Count)
system.cpu.branchPred.tage.longestMatchProvider::12       189109                       # TAGE provider for longest match (Count)
system.cpu.branchPred.tage.altMatchProvider::0        23214                       # TAGE provider for alt match (Count)
system.cpu.branchPred.tage.altMatchProvider::1         2492                       # TAGE provider for alt match (Count)
system.cpu.branchPred.tage.altMatchProvider::2        23914                       # TAGE provider for alt match (Count)
system.cpu.branchPred.tage.altMatchProvider::3        28399                       # TAGE provider for alt match (Count)
system.cpu.branchPred.tage.altMatchProvider::4        23964                       # TAGE provider for alt match (Count)
system.cpu.branchPred.tage.altMatchProvider::5        15111                       # TAGE provider for alt match (Count)
system.cpu.branchPred.tage.altMatchProvider::6         4518                       # TAGE provider for alt match (Count)
system.cpu.branchPred.tage.altMatchProvider::7        10871                       # TAGE provider for alt match (Count)
system.cpu.branchPred.tage.altMatchProvider::8        11985                       # TAGE provider for alt match (Count)
system.cpu.branchPred.tage.altMatchProvider::9        11534                       # TAGE provider for alt match (Count)
system.cpu.branchPred.tage.altMatchProvider::10        13444                       # TAGE provider for alt match (Count)
system.cpu.branchPred.tage.altMatchProvider::11       189056                       # TAGE provider for alt match (Count)
system.cpu.branchPred.tage.altMatchProvider::12            0                       # TAGE provider for alt match (Count)
system.cpu.commit.commitSquashedInsts           33613                       # The number of squashed insts skipped by commit (Count)
system.cpu.commit.commitNonSpecStalls              24                       # The number of times commit has been forced to stall to communicate backwards (Count)
system.cpu.commit.branchMispredicts              4258                       # The number of times a branch was mispredicted (Count)
system.cpu.commit.numCommittedDist::samples      8558154                       # Number of insts commited each cycle (Count)
system.cpu.commit.numCommittedDist::mean     1.249459                       # Number of insts commited each cycle (Count)
system.cpu.commit.numCommittedDist::stdev     1.461785                       # Number of insts commited each cycle (Count)
system.cpu.commit.numCommittedDist::underflows            0      0.00%      0.00% # Number of insts commited each cycle (Count)
system.cpu.commit.numCommittedDist::0         3478097     40.64%     40.64% # Number of insts commited each cycle (Count)
system.cpu.commit.numCommittedDist::1         2182132     25.50%     66.14% # Number of insts commited each cycle (Count)
system.cpu.commit.numCommittedDist::2         1247457     14.58%     80.71% # Number of insts commited each cycle (Count)
system.cpu.commit.numCommittedDist::3         1181533     13.81%     94.52% # Number of insts commited each cycle (Count)
system.cpu.commit.numCommittedDist::4          183008      2.14%     96.66% # Number of insts commited each cycle (Count)
system.cpu.commit.numCommittedDist::5          128601      1.50%     98.16% # Number of insts commited each cycle (Count)
system.cpu.commit.numCommittedDist::6           31708      0.37%     98.53% # Number of insts commited each cycle (Count)
system.cpu.commit.numCommittedDist::7           98814      1.15%     99.69% # Number of insts commited each cycle (Count)
system.cpu.commit.numCommittedDist::8           26804      0.31%    100.00% # Number of insts commited each cycle (Count)
system.cpu.commit.numCommittedDist::overflows            0      0.00%    100.00% # Number of insts commited each cycle (Count)
system.cpu.commit.numCommittedDist::min_value            0                       # Number of insts commited each cycle (Count)
system.cpu.commit.numCommittedDist::max_value            8                       # Number of insts commited each cycle (Count)
system.cpu.commit.numCommittedDist::total      8558154                       # Number of insts commited each cycle (Count)
system.cpu.commit.instsCommitted              6436803                       # Number of instructions committed (Count)
system.cpu.commit.opsCommitted               10693060                       # Number of ops (including micro ops) committed (Count)
system.cpu.commit.memRefs                     3058103                       # Number of memory references committed (Count)
system.cpu.commit.loads                       2243371                       # Number of loads committed (Count)
system.cpu.commit.amos                              0                       # Number of atomic instructions committed (Count)
system.cpu.commit.membars                           4                       # Number of memory barriers committed (Count)
system.cpu.commit.branches                     641846                       # Number of branches committed (Count)
system.cpu.commit.vectorInstructions                0                       # Number of committed Vector instructions. (Count)
system.cpu.commit.floating                       4869                       # Number of committed floating point instructions. (Count)
system.cpu.commit.integer                    10687938                       # Number of committed integer instructions. (Count)
system.cpu.commit.functionCalls                101100                       # Number of function calls committed. (Count)
system.cpu.commit.committedInstType_0::No_OpClass         1320      0.01%      0.01% # Class of committed instruction (Count)
system.cpu.commit.committedInstType_0::IntAlu      7328876     68.54%     68.55% # Class of committed instruction (Count)
system.cpu.commit.committedInstType_0::IntMult       300075      2.81%     71.36% # Class of committed instruction (Count)
system.cpu.commit.committedInstType_0::IntDiv         1538      0.01%     71.37% # Class of committed instruction (Count)
system.cpu.commit.committedInstType_0::FloatAdd           72      0.00%     71.37% # Class of committed instruction (Count)
system.cpu.commit.committedInstType_0::FloatCmp            0      0.00%     71.37% # Class of committed instruction (Count)
system.cpu.commit.committedInstType_0::FloatCvt           32      0.00%     71.37% # Class of committed instruction (Count)
system.cpu.commit.committedInstType_0::FloatMult            0      0.00%     71.37% # Class of committed instruction (Count)
system.cpu.commit.committedInstType_0::FloatMultAcc            0      0.00%     71.37% # Class of committed instruction (Count)
system.cpu.commit.committedInstType_0::FloatDiv            0      0.00%     71.37% # Class of committed instruction (Count)
system.cpu.commit.committedInstType_0::FloatMisc            0      0.00%     71.37% # Class of committed instruction (Count)
system.cpu.commit.committedInstType_0::FloatSqrt            0      0.00%     71.37% # Class of committed instruction (Count)
system.cpu.commit.committedInstType_0::SimdAdd          356      0.00%     71.38% # Class of committed instruction (Count)
system.cpu.commit.committedInstType_0::SimdAddAcc            0      0.00%     71.38% # Class of committed instruction (Count)
system.cpu.commit.committedInstType_0::SimdAlu          755      0.01%     71.38% # Class of committed instruction (Count)
system.cpu.commit.committedInstType_0::SimdCmp            0      0.00%     71.38% # Class of committed instruction (Count)
system.cpu.commit.committedInstType_0::SimdCvt          982      0.01%     71.39% # Class of committed instruction (Count)
system.cpu.commit.committedInstType_0::SimdMisc          801      0.01%     71.40% # Class of committed instruction (Count)
system.cpu.commit.committedInstType_0::SimdMult            0      0.00%     71.40% # Class of committed instruction (Count)
system.cpu.commit.committedInstType_0::SimdMultAcc            0      0.00%     71.40% # Class of committed instruction (Count)
system.cpu.commit.committedInstType_0::SimdShift          150      0.00%     71.40% # Class of committed instruction (Count)
system.cpu.commit.committedInstType_0::SimdShiftAcc            0      0.00%     71.40% # Class of committed instruction (Count)
system.cpu.commit.committedInstType_0::SimdDiv            0      0.00%     71.40% # Class of committed instruction (Count)
system.cpu.commit.committedInstType_0::SimdSqrt            0      0.00%     71.40% # Class of committed instruction (Count)
system.cpu.commit.committedInstType_0::SimdFloatAdd            0      0.00%     71.40% # Class of committed instruction (Count)
system.cpu.commit.committedInstType_0::SimdFloatAlu            0      0.00%     71.40% # Class of committed instruction (Count)
system.cpu.commit.committedInstType_0::SimdFloatCmp            0      0.00%     71.40% # Class of committed instruction (Count)
system.cpu.commit.committedInstType_0::SimdFloatCvt            0      0.00%     71.40% # Class of committed instruction (Count)
system.cpu.commit.committedInstType_0::SimdFloatDiv            0      0.00%     71.40% # Class of committed instruction (Count)
system.cpu.commit.committedInstType_0::SimdFloatMisc            0      0.00%     71.40% # Class of committed instruction (Count)
system.cpu.commit.committedInstType_0::SimdFloatMult            0      0.00%     71.40% # Class of committed instruction (Count)
system.cpu.commit.committedInstType_0::SimdFloatMultAcc            0      0.00%     71.40% # Class of committed instruction (Count)
system.cpu.commit.committedInstType_0::SimdFloatSqrt            0      0.00%     71.40% # Class of committed instruction (Count)
system.cpu.commit.committedInstType_0::SimdReduceAdd            0      0.00%     71.40% # Class of committed instruction (Count)
system.cpu.commit.committedInstType_0::SimdReduceAlu            0      0.00%     71.40% # Class of committed instruction (Count)
system.cpu.commit.committedInstType_0::SimdReduceCmp            0      0.00%     71.40% # Class of committed instruction (Count)
system.cpu.commit.committedInstType_0::SimdFloatReduceAdd            0      0.00%     71.40% # Class of committed instruction (Count)
system.cpu.commit.committedInstType_0::SimdFloatReduceCmp            0      0.00%     71.40% # Class of committed instruction (Count)
system.cpu.commit.committedInstType_0::SimdAes            0      0.00%     71.40% # Class of committed instruction (Count)
system.cpu.commit.committedInstType_0::SimdAesMix            0      0.00%     71.40% # Class of committed instruction (Count)
system.cpu.commit.committedInstType_0::SimdSha1Hash            0      0.00%     71.40% # Class of committed instruction (Count)
system.cpu.commit.committedInstType_0::SimdSha1Hash2            0      0.00%     71.40% # Class of committed instruction (Count)
system.cpu.commit.committedInstType_0::SimdSha256Hash            0      0.00%     71.40% # Class of committed instruction (Count)
system.cpu.commit.committedInstType_0::SimdSha256Hash2            0      0.00%     71.40% # Class of committed instruction (Count)
system.cpu.commit.committedInstType_0::SimdShaSigma2            0      0.00%     71.40% # Class of committed instruction (Count)
system.cpu.commit.committedInstType_0::SimdShaSigma3            0      0.00%     71.40% # Class of committed instruction (Count)
system.cpu.commit.committedInstType_0::SimdPredAlu            0      0.00%     71.40% # Class of committed instruction (Count)
system.cpu.commit.committedInstType_0::MemRead      2242277     20.97%     92.37% # Class of committed instruction (Count)
system.cpu.commit.committedInstType_0::MemWrite       814248      7.61%     99.99% # Class of committed instruction (Count)
system.cpu.commit.committedInstType_0::FloatMemRead         1094      0.01%    100.00% # Class of committed instruction (Count)
system.cpu.commit.committedInstType_0::FloatMemWrite          484      0.00%    100.00% # Class of committed instruction (Count)
system.cpu.commit.committedInstType_0::IprAccess            0      0.00%    100.00% # Class of committed instruction (Count)
system.cpu.commit.committedInstType_0::InstPrefetch            0      0.00%    100.00% # Class of committed instruction (Count)
system.cpu.commit.committedInstType_0::total     10693060                       # Class of committed instruction (Count)
system.cpu.commit.commitEligibleSamples         26804                       # number cycles where commit BW limit reached (Cycle)
system.cpu.dcache.demandHits::cpu.data        2323964                       # number of demand (read+write) hits (Count)
system.cpu.dcache.demandHits::total           2323964                       # number of demand (read+write) hits (Count)
system.cpu.dcache.overallHits::cpu.data       2323964                       # number of overall hits (Count)
system.cpu.dcache.overallHits::total          2323964                       # number of overall hits (Count)
system.cpu.dcache.demandMisses::cpu.data        26460                       # number of demand (read+write) misses (Count)
system.cpu.dcache.demandMisses::total           26460                       # number of demand (read+write) misses (Count)
system.cpu.dcache.overallMisses::cpu.data        26460                       # number of overall misses (Count)
system.cpu.dcache.overallMisses::total          26460                       # number of overall misses (Count)
system.cpu.dcache.demandMissLatency::cpu.data   1562529000                       # number of demand (read+write) miss ticks (Tick)
system.cpu.dcache.demandMissLatency::total   1562529000                       # number of demand (read+write) miss ticks (Tick)
system.cpu.dcache.overallMissLatency::cpu.data   1562529000                       # number of overall miss ticks (Tick)
system.cpu.dcache.overallMissLatency::total   1562529000                       # number of overall miss ticks (Tick)
system.cpu.dcache.demandAccesses::cpu.data      2350424                       # number of demand (read+write) accesses (Count)
system.cpu.dcache.demandAccesses::total       2350424                       # number of demand (read+write) accesses (Count)
system.cpu.dcache.overallAccesses::cpu.data      2350424                       # number of overall (read+write) accesses (Count)
system.cpu.dcache.overallAccesses::total      2350424                       # number of overall (read+write) accesses (Count)
system.cpu.dcache.demandMissRate::cpu.data     0.011258                       # miss rate for demand accesses (Ratio)
system.cpu.dcache.demandMissRate::total      0.011258                       # miss rate for demand accesses (Ratio)
system.cpu.dcache.overallMissRate::cpu.data     0.011258                       # miss rate for overall accesses (Ratio)
system.cpu.dcache.overallMissRate::total     0.011258                       # miss rate for overall accesses (Ratio)
system.cpu.dcache.demandAvgMissLatency::cpu.data 59052.494331                       # average overall miss latency in ticks ((Tick/Count))
system.cpu.dcache.demandAvgMissLatency::total 59052.494331                       # average overall miss latency in ticks ((Tick/Count))
system.cpu.dcache.overallAvgMissLatency::cpu.data 59052.494331                       # average overall miss latency ((Tick/Count))
system.cpu.dcache.overallAvgMissLatency::total 59052.494331                       # average overall miss latency ((Tick/Count))
system.cpu.dcache.blockedCycles::no_mshrs          674                       # number of cycles access was blocked (Cycle)
system.cpu.dcache.blockedCycles::no_targets            0                       # number of cycles access was blocked (Cycle)
system.cpu.dcache.blockedCauses::no_mshrs           17                       # number of times access was blocked (Count)
system.cpu.dcache.blockedCauses::no_targets            0                       # number of times access was blocked (Count)
system.cpu.dcache.avgBlocked::no_mshrs      39.647059                       # average number of cycles each access was blocked ((Cycle/Count))
system.cpu.dcache.avgBlocked::no_targets          nan                       # average number of cycles each access was blocked ((Cycle/Count))
system.cpu.dcache.writebacks::writebacks        10822                       # number of writebacks (Count)
system.cpu.dcache.writebacks::total             10822                       # number of writebacks (Count)
system.cpu.dcache.demandMshrHits::cpu.data        11878                       # number of demand (read+write) MSHR hits (Count)
system.cpu.dcache.demandMshrHits::total         11878                       # number of demand (read+write) MSHR hits (Count)
system.cpu.dcache.overallMshrHits::cpu.data        11878                       # number of overall MSHR hits (Count)
system.cpu.dcache.overallMshrHits::total        11878                       # number of overall MSHR hits (Count)
system.cpu.dcache.demandMshrMisses::cpu.data        14582                       # number of demand (read+write) MSHR misses (Count)
system.cpu.dcache.demandMshrMisses::total        14582                       # number of demand (read+write) MSHR misses (Count)
system.cpu.dcache.overallMshrMisses::cpu.data        14582                       # number of overall MSHR misses (Count)
system.cpu.dcache.overallMshrMisses::total        14582                       # number of overall MSHR misses (Count)
system.cpu.dcache.demandMshrMissLatency::cpu.data    858599000                       # number of demand (read+write) MSHR miss ticks (Tick)
system.cpu.dcache.demandMshrMissLatency::total    858599000                       # number of demand (read+write) MSHR miss ticks (Tick)
system.cpu.dcache.overallMshrMissLatency::cpu.data    858599000                       # number of overall MSHR miss ticks (Tick)
system.cpu.dcache.overallMshrMissLatency::total    858599000                       # number of overall MSHR miss ticks (Tick)
system.cpu.dcache.demandMshrMissRate::cpu.data     0.006204                       # mshr miss ratio for demand accesses (Ratio)
system.cpu.dcache.demandMshrMissRate::total     0.006204                       # mshr miss ratio for demand accesses (Ratio)
system.cpu.dcache.overallMshrMissRate::cpu.data     0.006204                       # mshr miss ratio for overall accesses (Ratio)
system.cpu.dcache.overallMshrMissRate::total     0.006204                       # mshr miss ratio for overall accesses (Ratio)
system.cpu.dcache.demandAvgMshrMissLatency::cpu.data 58880.743382                       # average overall mshr miss latency ((Tick/Count))
system.cpu.dcache.demandAvgMshrMissLatency::total 58880.743382                       # average overall mshr miss latency ((Tick/Count))
system.cpu.dcache.overallAvgMshrMissLatency::cpu.data 58880.743382                       # average overall mshr miss latency ((Tick/Count))
system.cpu.dcache.overallAvgMshrMissLatency::total 58880.743382                       # average overall mshr miss latency ((Tick/Count))
system.cpu.dcache.replacements                  14517                       # number of replacements (Count)
system.cpu.dcache.LockedRMWReadReq.hits::cpu.data            2                       # number of LockedRMWReadReq hits (Count)
system.cpu.dcache.LockedRMWReadReq.hits::total            2                       # number of LockedRMWReadReq hits (Count)
system.cpu.dcache.LockedRMWReadReq.accesses::cpu.data            2                       # number of LockedRMWReadReq accesses(hits+misses) (Count)
system.cpu.dcache.LockedRMWReadReq.accesses::total            2                       # number of LockedRMWReadReq accesses(hits+misses) (Count)
system.cpu.dcache.LockedRMWReadReq.mshrMissLatency::cpu.data         8000                       # number of LockedRMWReadReq MSHR miss ticks (Tick)
system.cpu.dcache.LockedRMWReadReq.mshrMissLatency::total         8000                       # number of LockedRMWReadReq MSHR miss ticks (Tick)
system.cpu.dcache.LockedRMWReadReq.avgMshrMissLatency::cpu.data          inf                       # average LockedRMWReadReq mshr miss latency ((Tick/Count))
system.cpu.dcache.LockedRMWReadReq.avgMshrMissLatency::total          inf                       # average LockedRMWReadReq mshr miss latency ((Tick/Count))
system.cpu.dcache.LockedRMWWriteReq.hits::cpu.data            2                       # number of LockedRMWWriteReq hits (Count)
system.cpu.dcache.LockedRMWWriteReq.hits::total            2                       # number of LockedRMWWriteReq hits (Count)
system.cpu.dcache.LockedRMWWriteReq.accesses::cpu.data            2                       # number of LockedRMWWriteReq accesses(hits+misses) (Count)
system.cpu.dcache.LockedRMWWriteReq.accesses::total            2                       # number of LockedRMWWriteReq accesses(hits+misses) (Count)
system.cpu.dcache.ReadReq.hits::cpu.data      1516452                       # number of ReadReq hits (Count)
system.cpu.dcache.ReadReq.hits::total         1516452                       # number of ReadReq hits (Count)
system.cpu.dcache.ReadReq.misses::cpu.data        19239                       # number of ReadReq misses (Count)
system.cpu.dcache.ReadReq.misses::total         19239                       # number of ReadReq misses (Count)
system.cpu.dcache.ReadReq.missLatency::cpu.data   1148375500                       # number of ReadReq miss ticks (Tick)
system.cpu.dcache.ReadReq.missLatency::total   1148375500                       # number of ReadReq miss ticks (Tick)
system.cpu.dcache.ReadReq.accesses::cpu.data      1535691                       # number of ReadReq accesses(hits+misses) (Count)
system.cpu.dcache.ReadReq.accesses::total      1535691                       # number of ReadReq accesses(hits+misses) (Count)
system.cpu.dcache.ReadReq.missRate::cpu.data     0.012528                       # miss rate for ReadReq accesses (Ratio)
system.cpu.dcache.ReadReq.missRate::total     0.012528                       # miss rate for ReadReq accesses (Ratio)
system.cpu.dcache.ReadReq.avgMissLatency::cpu.data 59689.978689                       # average ReadReq miss latency ((Tick/Count))
system.cpu.dcache.ReadReq.avgMissLatency::total 59689.978689                       # average ReadReq miss latency ((Tick/Count))
system.cpu.dcache.ReadReq.mshrHits::cpu.data        11870                       # number of ReadReq MSHR hits (Count)
system.cpu.dcache.ReadReq.mshrHits::total        11870                       # number of ReadReq MSHR hits (Count)
system.cpu.dcache.ReadReq.mshrMisses::cpu.data         7369                       # number of ReadReq MSHR misses (Count)
system.cpu.dcache.ReadReq.mshrMisses::total         7369                       # number of ReadReq MSHR misses (Count)
system.cpu.dcache.ReadReq.mshrMissLatency::cpu.data    452153500                       # number of ReadReq MSHR miss ticks (Tick)
system.cpu.dcache.ReadReq.mshrMissLatency::total    452153500                       # number of ReadReq MSHR miss ticks (Tick)
system.cpu.dcache.ReadReq.mshrMissRate::cpu.data     0.004798                       # mshr miss rate for ReadReq accesses (Ratio)
system.cpu.dcache.ReadReq.mshrMissRate::total     0.004798                       # mshr miss rate for ReadReq accesses (Ratio)
system.cpu.dcache.ReadReq.avgMshrMissLatency::cpu.data 61358.868232                       # average ReadReq mshr miss latency ((Tick/Count))
system.cpu.dcache.ReadReq.avgMshrMissLatency::total 61358.868232                       # average ReadReq mshr miss latency ((Tick/Count))
system.cpu.dcache.WriteReq.hits::cpu.data       807512                       # number of WriteReq hits (Count)
system.cpu.dcache.WriteReq.hits::total         807512                       # number of WriteReq hits (Count)
system.cpu.dcache.WriteReq.misses::cpu.data         7221                       # number of WriteReq misses (Count)
system.cpu.dcache.WriteReq.misses::total         7221                       # number of WriteReq misses (Count)
system.cpu.dcache.WriteReq.missLatency::cpu.data    414153500                       # number of WriteReq miss ticks (Tick)
system.cpu.dcache.WriteReq.missLatency::total    414153500                       # number of WriteReq miss ticks (Tick)
system.cpu.dcache.WriteReq.accesses::cpu.data       814733                       # number of WriteReq accesses(hits+misses) (Count)
system.cpu.dcache.WriteReq.accesses::total       814733                       # number of WriteReq accesses(hits+misses) (Count)
system.cpu.dcache.WriteReq.missRate::cpu.data     0.008863                       # miss rate for WriteReq accesses (Ratio)
system.cpu.dcache.WriteReq.missRate::total     0.008863                       # miss rate for WriteReq accesses (Ratio)
system.cpu.dcache.WriteReq.avgMissLatency::cpu.data 57354.036837                       # average WriteReq miss latency ((Tick/Count))
system.cpu.dcache.WriteReq.avgMissLatency::total 57354.036837                       # average WriteReq miss latency ((Tick/Count))
system.cpu.dcache.WriteReq.mshrHits::cpu.data            8                       # number of WriteReq MSHR hits (Count)
system.cpu.dcache.WriteReq.mshrHits::total            8                       # number of WriteReq MSHR hits (Count)
system.cpu.dcache.WriteReq.mshrMisses::cpu.data         7213                       # number of WriteReq MSHR misses (Count)
system.cpu.dcache.WriteReq.mshrMisses::total         7213                       # number of WriteReq MSHR misses (Count)
system.cpu.dcache.WriteReq.mshrMissLatency::cpu.data    406445500                       # number of WriteReq MSHR miss ticks (Tick)
system.cpu.dcache.WriteReq.mshrMissLatency::total    406445500                       # number of WriteReq MSHR miss ticks (Tick)
system.cpu.dcache.WriteReq.mshrMissRate::cpu.data     0.008853                       # mshr miss rate for WriteReq accesses (Ratio)
system.cpu.dcache.WriteReq.mshrMissRate::total     0.008853                       # mshr miss rate for WriteReq accesses (Ratio)
system.cpu.dcache.WriteReq.avgMshrMissLatency::cpu.data 56349.022598                       # average WriteReq mshr miss latency ((Tick/Count))
system.cpu.dcache.WriteReq.avgMshrMissLatency::total 56349.022598                       # average WriteReq mshr miss latency ((Tick/Count))
system.cpu.dcache.power_state.pwrStateResidencyTicks::UNDEFINED   4389926000                       # Cumulative time (in ticks) in various power states (Tick)
system.cpu.dcache.tags.tagsInUse            63.963666                       # Average ticks per tags in use ((Tick/Count))
system.cpu.dcache.tags.totalRefs              2338550                       # Total number of references to valid blocks. (Count)
system.cpu.dcache.tags.sampledRefs              14581                       # Sample count of references to valid blocks. (Count)
system.cpu.dcache.tags.avgRefs             160.383376                       # Average number of references to valid blocks. ((Count/Count))
system.cpu.dcache.tags.warmupTick             9255500                       # The tick when the warmup percentage was hit. (Tick)
system.cpu.dcache.tags.occupancies::cpu.data    63.963666                       # Average occupied blocks per tick, per requestor ((Count/Tick))
system.cpu.dcache.tags.avgOccs::cpu.data     0.999432                       # Average percentage of cache occupancy ((Ratio/Tick))
system.cpu.dcache.tags.avgOccs::total        0.999432                       # Average percentage of cache occupancy ((Ratio/Tick))
system.cpu.dcache.tags.occupanciesTaskId::1024           64                       # Occupied blocks per task id (Count)
system.cpu.dcache.tags.ageTaskId_1024::0           44                       # Occupied blocks per task id, per block age (Count)
system.cpu.dcache.tags.ageTaskId_1024::1           19                       # Occupied blocks per task id, per block age (Count)
system.cpu.dcache.tags.ageTaskId_1024::2            1                       # Occupied blocks per task id, per block age (Count)
system.cpu.dcache.tags.ratioOccsTaskId::1024            1                       # Ratio of occupied blocks and all blocks, per task id (Ratio)
system.cpu.dcache.tags.tagAccesses            4715437                       # Number of tag accesses (Count)
system.cpu.dcache.tags.dataAccesses           4715437                       # Number of data accesses (Count)
system.cpu.dcache.tags.power_state.pwrStateResidencyTicks::UNDEFINED   4389926000                       # Cumulative time (in ticks) in various power states (Tick)
system.cpu.decode.idleCycles                   505735                       # Number of cycles decode is idle (Cycle)
system.cpu.decode.blockedCycles               6704903                       # Number of cycles decode is blocked (Cycle)
system.cpu.decode.runCycles                    108691                       # Number of cycles decode is running (Cycle)
system.cpu.decode.unblockCycles               1241027                       # Number of cycles decode is unblocking (Cycle)
system.cpu.decode.squashCycles                   4461                       # Number of cycles decode is squashing (Cycle)
system.cpu.decode.branchResolved               468562                       # Number of times decode resolved a branch (Count)
system.cpu.decode.branchMispred                   597                       # Number of times decode detected a branch misprediction (Count)
system.cpu.decode.decodedInsts               10755880                       # Number of instructions handled by decode (Count)
system.cpu.decode.squashedInsts                  2285                       # Number of squashed instructions handled by decode (Count)
system.cpu.fetch.icacheStallCycles             992640                       # Number of cycles fetch is stalled on an Icache miss (Cycle)
system.cpu.fetch.insts                        6549853                       # Number of instructions fetch has processed (Count)
system.cpu.fetch.branches                      666418                       # Number of branches that fetch encountered (Count)
system.cpu.fetch.predictedBranches             576921                       # Number of branches that fetch has predicted taken (Count)
system.cpu.fetch.cycles                       7565537                       # Number of cycles fetch has run and was not squashing or blocked (Cycle)
system.cpu.fetch.squashCycles                   10106                       # Number of cycles fetch has spent squashing (Cycle)
system.cpu.fetch.miscStallCycles                  149                       # Number of cycles fetch has spent waiting on interrupts, or bad addresses, or out of MSHRs (Cycle)
system.cpu.fetch.pendingTrapStallCycles          1420                       # Number of stall cycles due to pending traps (Cycle)
system.cpu.fetch.icacheWaitRetryStallCycles           18                       # Number of stall cycles due to full MSHR (Cycle)
system.cpu.fetch.cacheLines                    888113                       # Number of cache lines fetched (Count)
system.cpu.fetch.icacheSquashes                  1442                       # Number of outstanding Icache misses that were squashed (Count)
system.cpu.fetch.nisnDist::samples            8564817                       # Number of instructions fetched each cycle (Total) (Count)
system.cpu.fetch.nisnDist::mean              1.272354                       # Number of instructions fetched each cycle (Total) (Count)
system.cpu.fetch.nisnDist::stdev             2.545914                       # Number of instructions fetched each cycle (Total) (Count)
system.cpu.fetch.nisnDist::underflows               0      0.00%      0.00% # Number of instructions fetched each cycle (Total) (Count)
system.cpu.fetch.nisnDist::0                  6455433     75.37%     75.37% # Number of instructions fetched each cycle (Total) (Count)
system.cpu.fetch.nisnDist::1                   204739      2.39%     77.76% # Number of instructions fetched each cycle (Total) (Count)
system.cpu.fetch.nisnDist::2                   170979      2.00%     79.76% # Number of instructions fetched each cycle (Total) (Count)
system.cpu.fetch.nisnDist::3                   325057      3.80%     83.55% # Number of instructions fetched each cycle (Total) (Count)
system.cpu.fetch.nisnDist::4                   196114      2.29%     85.84% # Number of instructions fetched each cycle (Total) (Count)
system.cpu.fetch.nisnDist::5                   179335      2.09%     87.94% # Number of instructions fetched each cycle (Total) (Count)
system.cpu.fetch.nisnDist::6                   192130      2.24%     90.18% # Number of instructions fetched each cycle (Total) (Count)
system.cpu.fetch.nisnDist::7                   186542      2.18%     92.36% # Number of instructions fetched each cycle (Total) (Count)
system.cpu.fetch.nisnDist::8                   654488      7.64%    100.00% # Number of instructions fetched each cycle (Total) (Count)
system.cpu.fetch.nisnDist::overflows                0      0.00%    100.00% # Number of instructions fetched each cycle (Total) (Count)
system.cpu.fetch.nisnDist::min_value                0                       # Number of instructions fetched each cycle (Total) (Count)
system.cpu.fetch.nisnDist::max_value                8                       # Number of instructions fetched each cycle (Total) (Count)
system.cpu.fetch.nisnDist::total              8564817                       # Number of instructions fetched each cycle (Total) (Count)
system.cpu.fetch.branchRate                  0.075903                       # Number of branch fetches per cycle (Ratio)
system.cpu.fetch.rate                        0.746009                       # Number of inst fetches per cycle ((Count/Cycle))
system.cpu.icache.demandHits::cpu.inst         884363                       # number of demand (read+write) hits (Count)
system.cpu.icache.demandHits::total            884363                       # number of demand (read+write) hits (Count)
system.cpu.icache.overallHits::cpu.inst        884363                       # number of overall hits (Count)
system.cpu.icache.overallHits::total           884363                       # number of overall hits (Count)
system.cpu.icache.demandMisses::cpu.inst         3750                       # number of demand (read+write) misses (Count)
system.cpu.icache.demandMisses::total            3750                       # number of demand (read+write) misses (Count)
system.cpu.icache.overallMisses::cpu.inst         3750                       # number of overall misses (Count)
system.cpu.icache.overallMisses::total           3750                       # number of overall misses (Count)
system.cpu.icache.demandMissLatency::cpu.inst    218795998                       # number of demand (read+write) miss ticks (Tick)
system.cpu.icache.demandMissLatency::total    218795998                       # number of demand (read+write) miss ticks (Tick)
system.cpu.icache.overallMissLatency::cpu.inst    218795998                       # number of overall miss ticks (Tick)
system.cpu.icache.overallMissLatency::total    218795998                       # number of overall miss ticks (Tick)
system.cpu.icache.demandAccesses::cpu.inst       888113                       # number of demand (read+write) accesses (Count)
system.cpu.icache.demandAccesses::total        888113                       # number of demand (read+write) accesses (Count)
system.cpu.icache.overallAccesses::cpu.inst       888113                       # number of overall (read+write) accesses (Count)
system.cpu.icache.overallAccesses::total       888113                       # number of overall (read+write) accesses (Count)
system.cpu.icache.demandMissRate::cpu.inst     0.004222                       # miss rate for demand accesses (Ratio)
system.cpu.icache.demandMissRate::total      0.004222                       # miss rate for demand accesses (Ratio)
system.cpu.icache.overallMissRate::cpu.inst     0.004222                       # miss rate for overall accesses (Ratio)
system.cpu.icache.overallMissRate::total     0.004222                       # miss rate for overall accesses (Ratio)
system.cpu.icache.demandAvgMissLatency::cpu.inst 58345.599467                       # average overall miss latency in ticks ((Tick/Count))
system.cpu.icache.demandAvgMissLatency::total 58345.599467                       # average overall miss latency in ticks ((Tick/Count))
system.cpu.icache.overallAvgMissLatency::cpu.inst 58345.599467                       # average overall miss latency ((Tick/Count))
system.cpu.icache.overallAvgMissLatency::total 58345.599467                       # average overall miss latency ((Tick/Count))
system.cpu.icache.blockedCycles::no_mshrs          510                       # number of cycles access was blocked (Cycle)
system.cpu.icache.blockedCycles::no_targets            0                       # number of cycles access was blocked (Cycle)
system.cpu.icache.blockedCauses::no_mshrs            8                       # number of times access was blocked (Count)
system.cpu.icache.blockedCauses::no_targets            0                       # number of times access was blocked (Count)
system.cpu.icache.avgBlocked::no_mshrs      63.750000                       # average number of cycles each access was blocked ((Cycle/Count))
system.cpu.icache.avgBlocked::no_targets          nan                       # average number of cycles each access was blocked ((Cycle/Count))
system.cpu.icache.demandMshrHits::cpu.inst          478                       # number of demand (read+write) MSHR hits (Count)
system.cpu.icache.demandMshrHits::total           478                       # number of demand (read+write) MSHR hits (Count)
system.cpu.icache.overallMshrHits::cpu.inst          478                       # number of overall MSHR hits (Count)
system.cpu.icache.overallMshrHits::total          478                       # number of overall MSHR hits (Count)
system.cpu.icache.demandMshrMisses::cpu.inst         3272                       # number of demand (read+write) MSHR misses (Count)
system.cpu.icache.demandMshrMisses::total         3272                       # number of demand (read+write) MSHR misses (Count)
system.cpu.icache.overallMshrMisses::cpu.inst         3272                       # number of overall MSHR misses (Count)
system.cpu.icache.overallMshrMisses::total         3272                       # number of overall MSHR misses (Count)
system.cpu.icache.demandMshrMissLatency::cpu.inst    190703999                       # number of demand (read+write) MSHR miss ticks (Tick)
system.cpu.icache.demandMshrMissLatency::total    190703999                       # number of demand (read+write) MSHR miss ticks (Tick)
system.cpu.icache.overallMshrMissLatency::cpu.inst    190703999                       # number of overall MSHR miss ticks (Tick)
system.cpu.icache.overallMshrMissLatency::total    190703999                       # number of overall MSHR miss ticks (Tick)
system.cpu.icache.demandMshrMissRate::cpu.inst     0.003684                       # mshr miss ratio for demand accesses (Ratio)
system.cpu.icache.demandMshrMissRate::total     0.003684                       # mshr miss ratio for demand accesses (Ratio)
system.cpu.icache.overallMshrMissRate::cpu.inst     0.003684                       # mshr miss ratio for overall accesses (Ratio)
system.cpu.icache.overallMshrMissRate::total     0.003684                       # mshr miss ratio for overall accesses (Ratio)
system.cpu.icache.demandAvgMshrMissLatency::cpu.inst 58283.618276                       # average overall mshr miss latency ((Tick/Count))
system.cpu.icache.demandAvgMshrMissLatency::total 58283.618276                       # average overall mshr miss latency ((Tick/Count))
system.cpu.icache.overallAvgMshrMissLatency::cpu.inst 58283.618276                       # average overall mshr miss latency ((Tick/Count))
system.cpu.icache.overallAvgMshrMissLatency::total 58283.618276                       # average overall mshr miss latency ((Tick/Count))
system.cpu.icache.replacements                   3206                       # number of replacements (Count)
system.cpu.icache.ReadReq.hits::cpu.inst       884363                       # number of ReadReq hits (Count)
system.cpu.icache.ReadReq.hits::total          884363                       # number of ReadReq hits (Count)
system.cpu.icache.ReadReq.misses::cpu.inst         3750                       # number of ReadReq misses (Count)
system.cpu.icache.ReadReq.misses::total          3750                       # number of ReadReq misses (Count)
system.cpu.icache.ReadReq.missLatency::cpu.inst    218795998                       # number of ReadReq miss ticks (Tick)
system.cpu.icache.ReadReq.missLatency::total    218795998                       # number of ReadReq miss ticks (Tick)
system.cpu.icache.ReadReq.accesses::cpu.inst       888113                       # number of ReadReq accesses(hits+misses) (Count)
system.cpu.icache.ReadReq.accesses::total       888113                       # number of ReadReq accesses(hits+misses) (Count)
system.cpu.icache.ReadReq.missRate::cpu.inst     0.004222                       # miss rate for ReadReq accesses (Ratio)
system.cpu.icache.ReadReq.missRate::total     0.004222                       # miss rate for ReadReq accesses (Ratio)
system.cpu.icache.ReadReq.avgMissLatency::cpu.inst 58345.599467                       # average ReadReq miss latency ((Tick/Count))
system.cpu.icache.ReadReq.avgMissLatency::total 58345.599467                       # average ReadReq miss latency ((Tick/Count))
system.cpu.icache.ReadReq.mshrHits::cpu.inst          478                       # number of ReadReq MSHR hits (Count)
system.cpu.icache.ReadReq.mshrHits::total          478                       # number of ReadReq MSHR hits (Count)
system.cpu.icache.ReadReq.mshrMisses::cpu.inst         3272                       # number of ReadReq MSHR misses (Count)
system.cpu.icache.ReadReq.mshrMisses::total         3272                       # number of ReadReq MSHR misses (Count)
system.cpu.icache.ReadReq.mshrMissLatency::cpu.inst    190703999                       # number of ReadReq MSHR miss ticks (Tick)
system.cpu.icache.ReadReq.mshrMissLatency::total    190703999                       # number of ReadReq MSHR miss ticks (Tick)
system.cpu.icache.ReadReq.mshrMissRate::cpu.inst     0.003684                       # mshr miss rate for ReadReq accesses (Ratio)
system.cpu.icache.ReadReq.mshrMissRate::total     0.003684                       # mshr miss rate for ReadReq accesses (Ratio)
system.cpu.icache.ReadReq.avgMshrMissLatency::cpu.inst 58283.618276                       # average ReadReq mshr miss latency ((Tick/Count))
system.cpu.icache.ReadReq.avgMshrMissLatency::total 58283.618276                       # average ReadReq mshr miss latency ((Tick/Count))
system.cpu.icache.power_state.pwrStateResidencyTicks::UNDEFINED   4389926000                       # Cumulative time (in ticks) in various power states (Tick)
system.cpu.icache.tags.tagsInUse            63.836085                       # Average ticks per tags in use ((Tick/Count))
system.cpu.icache.tags.totalRefs               887634                       # Total number of references to valid blocks. (Count)
system.cpu.icache.tags.sampledRefs               3271                       # Sample count of references to valid blocks. (Count)
system.cpu.icache.tags.avgRefs             271.364720                       # Average number of references to valid blocks. ((Count/Count))
system.cpu.icache.tags.warmupTick            11667000                       # The tick when the warmup percentage was hit. (Tick)
system.cpu.icache.tags.occupancies::cpu.inst    63.836085                       # Average occupied blocks per tick, per requestor ((Count/Tick))
system.cpu.icache.tags.avgOccs::cpu.inst     0.997439                       # Average percentage of cache occupancy ((Ratio/Tick))
system.cpu.icache.tags.avgOccs::total        0.997439                       # Average percentage of cache occupancy ((Ratio/Tick))
system.cpu.icache.tags.occupanciesTaskId::1024           64                       # Occupied blocks per task id (Count)
system.cpu.icache.tags.ageTaskId_1024::0           63                       # Occupied blocks per task id, per block age (Count)
system.cpu.icache.tags.ageTaskId_1024::1            1                       # Occupied blocks per task id, per block age (Count)
system.cpu.icache.tags.ratioOccsTaskId::1024            1                       # Ratio of occupied blocks and all blocks, per task id (Ratio)
system.cpu.icache.tags.tagAccesses            1779497                       # Number of tag accesses (Count)
system.cpu.icache.tags.dataAccesses           1779497                       # Number of data accesses (Count)
system.cpu.icache.tags.power_state.pwrStateResidencyTicks::UNDEFINED   4389926000                       # Cumulative time (in ticks) in various power states (Tick)
system.cpu.iew.idleCycles                           0                       # Number of cycles IEW is idle (Cycle)
system.cpu.iew.squashCycles                      4461                       # Number of cycles IEW is squashing (Cycle)
system.cpu.iew.blockCycles                       2202                       # Number of cycles IEW is blocking (Cycle)
system.cpu.iew.unblockCycles                     2541                       # Number of cycles IEW is unblocking (Cycle)
system.cpu.iew.dispatchedInsts               10727600                       # Number of instructions dispatched to IQ (Count)
system.cpu.iew.dispSquashedInsts                 3639                       # Number of squashed instructions skipped by dispatch (Count)
system.cpu.iew.dispLoadInsts                  2248231                       # Number of dispatched load instructions (Count)
system.cpu.iew.dispStoreInsts                  815831                       # Number of dispatched store instructions (Count)
system.cpu.iew.dispNonSpecInsts                    39                       # Number of dispatched non-speculative instructions (Count)
system.cpu.iew.iqFullEvents                         0                       # Number of times the IQ has become full, causing a stall (Count)
system.cpu.iew.lsqFullEvents                     2541                       # Number of times the LSQ has become full, causing a stall (Count)
system.cpu.iew.memOrderViolationEvents             45                       # Number of memory order violations (Count)
system.cpu.iew.predictedTakenIncorrect           1810                       # Number of branches that were predicted taken incorrectly (Count)
system.cpu.iew.predictedNotTakenIncorrect         2602                       # Number of branches that were predicted not taken incorrectly (Count)
system.cpu.iew.branchMispredicts                 4412                       # Number of branch mispredicts detected at execute (Count)
system.cpu.iew.instsToCommit                 10715753                       # Cumulative count of insts sent to commit (Count)
system.cpu.iew.writebackCount                10715327                       # Cumulative count of insts written-back (Count)
system.cpu.iew.producerInst                   7591479                       # Number of instructions producing a value (Count)
system.cpu.iew.consumerInst                   9900243                       # Number of instructions consuming a value (Count)
system.cpu.iew.wbRate                        1.220445                       # Insts written-back per cycle ((Count/Cycle))
system.cpu.iew.wbFanout                      0.766797                       # Average fanout of values written-back ((Count/Count))
system.cpu.interrupts.clk_domain.clock           8000                       # Clock period in ticks (Tick)
system.cpu.lsq0.forwLoads                      711196                       # Number of loads that had data forwarded from stores (Count)
system.cpu.lsq0.squashedLoads                    4860                       # Number of loads squashed (Count)
system.cpu.lsq0.ignoredResponses                   10                       # Number of memory responses ignored because the instruction is squashed (Count)
[...]
system.mem_ctrls.dram.numReads::cpu.inst         2340                       # Number of read requests responded to by this memory (Count)
system.mem_ctrls.dram.numReads::cpu.data        10958                       # Number of read requests responded to by this memory (Count)
system.mem_ctrls.dram.numReads::total           13298                       # Number of read requests responded to by this memory (Count)
system.mem_ctrls.dram.numWrites::writebacks         7930                       # Number of write requests responded to by this memory (Count)
system.mem_ctrls.dram.numWrites::total           7930                       # Number of write requests responded to by this memory (Count)
system.mem_ctrls.dram.bwRead::cpu.inst       34114470                       # Total read bandwidth from this memory ((Byte/Second))
system.mem_ctrls.dram.bwRead::cpu.data      159754857                       # Total read bandwidth from this memory ((Byte/Second))
system.mem_ctrls.dram.bwRead::total         193869327                       # Total read bandwidth from this memory ((Byte/Second))
system.mem_ctrls.dram.bwInstRead::cpu.inst     34114470                       # Instruction read bandwidth from this memory ((Byte/Second))
system.mem_ctrls.dram.bwInstRead::total      34114470                       # Instruction read bandwidth from this memory ((Byte/Second))
system.mem_ctrls.dram.bwWrite::writebacks    115610149                       # Write bandwidth from this memory ((Byte/Second))
system.mem_ctrls.dram.bwWrite::total        115610149                       # Write bandwidth from this memory ((Byte/Second))
system.mem_ctrls.dram.bwTotal::writebacks    115610149                       # Total bandwidth to/from this memory ((Byte/Second))
system.mem_ctrls.dram.bwTotal::cpu.inst      34114470                       # Total bandwidth to/from this memory ((Byte/Second))
system.mem_ctrls.dram.bwTotal::cpu.data     159754857                       # Total bandwidth to/from this memory ((Byte/Second))
system.mem_ctrls.dram.bwTotal::total        309479476                       # Total bandwidth to/from this memory ((Byte/Second))
system.mem_ctrls.dram.readBursts                12945                       # Number of DRAM read bursts (Count)
system.mem_ctrls.dram.writeBursts                7908                       # Number of DRAM write bursts (Count)
system.mem_ctrls.dram.perBankRdBursts::0          516                       # Per bank write bursts (Count)
system.mem_ctrls.dram.perBankRdBursts::1          370                       # Per bank write bursts (Count)
system.mem_ctrls.dram.perBankRdBursts::2          343                       # Per bank write bursts (Count)
system.mem_ctrls.dram.perBankRdBursts::3          241                       # Per bank write bursts (Count)
system.mem_ctrls.dram.perBankRdBursts::4          310                       # Per bank write bursts (Count)
system.mem_ctrls.dram.perBankRdBursts::5          375                       # Per bank write bursts (Count)
system.mem_ctrls.dram.perBankRdBursts::6          596                       # Per bank write bursts (Count)
system.mem_ctrls.dram.perBankRdBursts::7          221                       # Per bank write bursts (Count)
system.mem_ctrls.dram.perBankRdBursts::8          990                       # Per bank write bursts (Count)
system.mem_ctrls.dram.perBankRdBursts::9         2076                       # Per bank write bursts (Count)
system.mem_ctrls.dram.perBankRdBursts::10         1797                       # Per bank write bursts (Count)
system.mem_ctrls.dram.perBankRdBursts::11         1634                       # Per bank write bursts (Count)
system.mem_ctrls.dram.perBankRdBursts::12         1444                       # Per bank write bursts (Count)
system.mem_ctrls.dram.perBankRdBursts::13         1100                       # Per bank write bursts (Count)
system.mem_ctrls.dram.perBankRdBursts::14          502                       # Per bank write bursts (Count)
system.mem_ctrls.dram.perBankRdBursts::15          430                       # Per bank write bursts (Count)
system.mem_ctrls.dram.perBankWrBursts::0           45                       # Per bank write bursts (Count)
system.mem_ctrls.dram.perBankWrBursts::1           43                       # Per bank write bursts (Count)
system.mem_ctrls.dram.perBankWrBursts::2           63                       # Per bank write bursts (Count)
system.mem_ctrls.dram.perBankWrBursts::3           58                       # Per bank write bursts (Count)
system.mem_ctrls.dram.perBankWrBursts::4            0                       # Per bank write bursts (Count)
system.mem_ctrls.dram.perBankWrBursts::5          131                       # Per bank write bursts (Count)
system.mem_ctrls.dram.perBankWrBursts::6          302                       # Per bank write bursts (Count)
system.mem_ctrls.dram.perBankWrBursts::7           14                       # Per bank write bursts (Count)
system.mem_ctrls.dram.perBankWrBursts::8          677                       # Per bank write bursts (Count)
system.mem_ctrls.dram.perBankWrBursts::9         1635                       # Per bank write bursts (Count)
system.mem_ctrls.dram.perBankWrBursts::10         1578                       # Per bank write bursts (Count)
system.mem_ctrls.dram.perBankWrBursts::11         1269                       # Per bank write bursts (Count)
system.mem_ctrls.dram.perBankWrBursts::12         1278                       # Per bank write bursts (Count)
system.mem_ctrls.dram.perBankWrBursts::13          659                       # Per bank write bursts (Count)
system.mem_ctrls.dram.perBankWrBursts::14          156                       # Per bank write bursts (Count)
system.mem_ctrls.dram.perBankWrBursts::15            0                       # Per bank write bursts (Count)
system.mem_ctrls.dram.totQLat               127043250                       # Total ticks spent queuing (Tick)
system.mem_ctrls.dram.totBusLat              64725000                       # Total ticks spent in databus transfers (Tick)
system.mem_ctrls.dram.totMemAccLat          369762000                       # Total ticks spent from burst creation until serviced by the DRAM (Tick)
system.mem_ctrls.dram.avgQLat                 9814.08                       # Average queueing delay per DRAM burst ((Tick/Count))
system.mem_ctrls.dram.avgBusLat               5000.00                       # Average bus latency per DRAM burst ((Tick/Count))
system.mem_ctrls.dram.avgMemAccLat           28564.08                       # Average memory access latency per DRAM burst ((Tick/Count))
system.mem_ctrls.dram.readRowHits               11099                       # Number of row buffer hits during reads (Count)
system.mem_ctrls.dram.writeRowHits               7100                       # Number of row buffer hits during writes (Count)
system.mem_ctrls.dram.readRowHitRate            85.74                       # Row buffer hit rate for reads (Ratio)
system.mem_ctrls.dram.writeRowHitRate           89.78                       # Row buffer hit rate for writes (Ratio)
system.mem_ctrls.dram.bytesPerActivate::samples         2642                       # Bytes accessed per row activation (Byte)
system.mem_ctrls.dram.bytesPerActivate::mean   503.448902                       # Bytes accessed per row activation (Byte)
system.mem_ctrls.dram.bytesPerActivate::gmean   318.131681                       # Bytes accessed per row activation (Byte)
system.mem_ctrls.dram.bytesPerActivate::stdev   390.185865                       # Bytes accessed per row activation (Byte)
system.mem_ctrls.dram.bytesPerActivate::0-127          544     20.59%     20.59% # Bytes accessed per row activation (Byte)
system.mem_ctrls.dram.bytesPerActivate::128-255          508     19.23%     39.82% # Bytes accessed per row activation (Byte)
system.mem_ctrls.dram.bytesPerActivate::256-383          217      8.21%     48.03% # Bytes accessed per row activation (Byte)
system.mem_ctrls.dram.bytesPerActivate::384-511          160      6.06%     54.09% # Bytes accessed per row activation (Byte)
system.mem_ctrls.dram.bytesPerActivate::512-639          125      4.73%     58.82% # Bytes accessed per row activation (Byte)
system.mem_ctrls.dram.bytesPerActivate::640-767          131      4.96%     63.78% # Bytes accessed per row activation (Byte)
system.mem_ctrls.dram.bytesPerActivate::768-895          118      4.47%     68.24% # Bytes accessed per row activation (Byte)
system.mem_ctrls.dram.bytesPerActivate::896-1023          259      9.80%     78.05% # Bytes accessed per row activation (Byte)
system.mem_ctrls.dram.bytesPerActivate::1024-1151          580     21.95%    100.00% # Bytes accessed per row activation (Byte)
system.mem_ctrls.dram.bytesPerActivate::total         2642                       # Bytes accessed per row activation (Byte)
system.mem_ctrls.dram.bytesRead                828480                       # Total bytes read (Byte)
system.mem_ctrls.dram.bytesWritten             506112                       # Total bytes written (Byte)
system.mem_ctrls.dram.avgRdBW              188.722999                       # Average DRAM read bandwidth in MiBytes/s ((Byte/Second))
system.mem_ctrls.dram.avgWrBW              115.289415                       # Average DRAM write bandwidth in MiBytes/s ((Byte/Second))
system.mem_ctrls.dram.peakBW                 12800.00                       # Theoretical peak bandwidth in MiByte/s ((Byte/Second))
system.mem_ctrls.dram.busUtil                    2.38                       # Data bus utilization in percentage (Ratio)
system.mem_ctrls.dram.busUtilRead                1.47                       # Data bus utilization in percentage for reads (Ratio)
system.mem_ctrls.dram.busUtilWrite               0.90                       # Data bus utilization in percentage for writes (Ratio)
system.mem_ctrls.dram.pageHitRate               87.27                       # Row buffer hit rate, read and write combined (Ratio)
system.mem_ctrls.dram.power_state.pwrStateResidencyTicks::UNDEFINED   4389926000                       # Cumulative time (in ticks) in various power states (Tick)
system.mem_ctrls.dram.rank0.actEnergy         5169360                       # Energy for activate commands per rank (pJ) (Joule)
system.mem_ctrls.dram.rank0.preEnergy         2728605                       # Energy for precharge commands per rank (pJ) (Joule)
system.mem_ctrls.dram.rank0.readEnergy       21220080                       # Energy for read commands per rank (pJ) (Joule)
system.mem_ctrls.dram.rank0.writeEnergy       3424320                       # Energy for write commands per rank (pJ) (Joule)
system.mem_ctrls.dram.rank0.refreshEnergy 346042320.000000                       # Energy for refresh commands per rank (pJ) (Joule)
system.mem_ctrls.dram.rank0.actBackEnergy    309457560                       # Energy for active background per rank (pJ) (Joule)
system.mem_ctrls.dram.rank0.preBackEnergy   1425135840                       # Energy for precharge background per rank (pJ) (Joule)
system.mem_ctrls.dram.rank0.actPowerDownEnergy            0                       # Energy for active power-down per rank (pJ) (Joule)
system.mem_ctrls.dram.rank0.prePowerDownEnergy            0                       # Energy for precharge power-down per rank (pJ) (Joule)
system.mem_ctrls.dram.rank0.selfRefreshEnergy            0                       # Energy for self refresh per rank (pJ) (Joule)
system.mem_ctrls.dram.rank0.totalEnergy    2113178085                       # Total energy per rank (pJ) (Joule)
system.mem_ctrls.dram.rank0.averagePower   481.369865                       # Core power per rank (mW) (Watt)
system.mem_ctrls.dram.rank0.totalIdleTime            0                       # Total Idle time Per DRAM Rank (Tick)
system.mem_ctrls.dram.rank0.pwrStateTime::IDLE   3701657000                       # Time in different power states (Tick)
system.mem_ctrls.dram.rank0.pwrStateTime::REF    146380000                       # Time in different power states (Tick)
system.mem_ctrls.dram.rank0.pwrStateTime::SREF            0                       # Time in different power states (Tick)
system.mem_ctrls.dram.rank0.pwrStateTime::PRE_PDN            0                       # Time in different power states (Tick)
system.mem_ctrls.dram.rank0.pwrStateTime::ACT    541889000                       # Time in different power states (Tick)
system.mem_ctrls.dram.rank0.pwrStateTime::ACT_PDN            0                       # Time in different power states (Tick)
system.mem_ctrls.dram.rank1.actEnergy        13780200                       # Energy for activate commands per rank (pJ) (Joule)
system.mem_ctrls.dram.rank1.preEnergy         7297785                       # Energy for precharge commands per rank (pJ) (Joule)
system.mem_ctrls.dram.rank1.readEnergy       71207220                       # Energy for read commands per rank (pJ) (Joule)
system.mem_ctrls.dram.rank1.writeEnergy      37855440                       # Energy for write commands per rank (pJ) (Joule)
system.mem_ctrls.dram.rank1.refreshEnergy 346042320.000000                       # Energy for refresh commands per rank (pJ) (Joule)
system.mem_ctrls.dram.rank1.actBackEnergy   1596766080                       # Energy for active background per rank (pJ) (Joule)
system.mem_ctrls.dram.rank1.preBackEnergy    341086560                       # Energy for precharge background per rank (pJ) (Joule)
system.mem_ctrls.dram.rank1.actPowerDownEnergy            0                       # Energy for active power-down per rank (pJ) (Joule)
system.mem_ctrls.dram.rank1.prePowerDownEnergy            0                       # Energy for precharge power-down per rank (pJ) (Joule)
system.mem_ctrls.dram.rank1.selfRefreshEnergy            0                       # Energy for self refresh per rank (pJ) (Joule)
system.mem_ctrls.dram.rank1.totalEnergy    2414035605                       # Total energy per rank (pJ) (Joule)
system.mem_ctrls.dram.rank1.averagePower   549.903485                       # Core power per rank (mW) (Watt)
system.mem_ctrls.dram.rank1.totalIdleTime            0                       # Total Idle time Per DRAM Rank (Tick)
system.mem_ctrls.dram.rank1.pwrStateTime::IDLE    873721000                       # Time in different power states (Tick)
system.mem_ctrls.dram.rank1.pwrStateTime::REF    146380000                       # Time in different power states (Tick)
system.mem_ctrls.dram.rank1.pwrStateTime::SREF            0                       # Time in different power states (Tick)
system.mem_ctrls.dram.rank1.pwrStateTime::PRE_PDN            0                       # Time in different power states (Tick)
system.mem_ctrls.dram.rank1.pwrStateTime::ACT   3369825000                       # Time in different power states (Tick)
system.mem_ctrls.dram.rank1.pwrStateTime::ACT_PDN            0                       # Time in different power states (Tick)
system.mem_ctrls.power_state.pwrStateResidencyTicks::UNDEFINED   4389926000                       # Cumulative time (in ticks) in various power states (Tick)
system.membus.transDist::ReadResp                8366                       # Transaction distribution (Count)
system.membus.transDist::WritebackDirty          7930                       # Transaction distribution (Count)
system.membus.transDist::CleanEvict              4856                       # Transaction distribution (Count)
system.membus.transDist::ReadExReq               4932                       # Transaction distribution (Count)
system.membus.transDist::ReadExResp              4932                       # Transaction distribution (Count)
system.membus.transDist::ReadSharedReq           8367                       # Transaction distribution (Count)
system.membus.pktCount_system.l2cache.mem_side_port::system.mem_ctrls.port        39383                       # Packet count per connected requestor and responder (Count)
system.membus.pktCount_system.l2cache.mem_side_port::total        39383                       # Packet count per connected requestor and responder (Count)
system.membus.pktCount::total                   39383                       # Packet count per connected requestor and responder (Count)
system.membus.pktSize_system.l2cache.mem_side_port::system.mem_ctrls.port      1358592                       # Cumulative packet size per connected requestor and responder (Byte)
system.membus.pktSize_system.l2cache.mem_side_port::total      1358592                       # Cumulative packet size per connected requestor and responder (Byte)
system.membus.pktSize::total                  1358592                       # Cumulative packet size per connected requestor and responder (Byte)
system.membus.snoops                                0                       # Total snoops (Count)
system.membus.snoopTraffic                          0                       # Total snoop traffic (Byte)
system.membus.snoopFanout::samples              13299                       # Request fanout histogram (Count)
system.membus.snoopFanout::mean                     0                       # Request fanout histogram (Count)
system.membus.snoopFanout::stdev                    0                       # Request fanout histogram (Count)
system.membus.snoopFanout::underflows               0      0.00%      0.00% # Request fanout histogram (Count)
system.membus.snoopFanout::0                    13299    100.00%    100.00% # Request fanout histogram (Count)
system.membus.snoopFanout::1                        0      0.00%    100.00% # Request fanout histogram (Count)
system.membus.snoopFanout::overflows                0      0.00%    100.00% # Request fanout histogram (Count)
system.membus.snoopFanout::min_value                0                       # Request fanout histogram (Count)
system.membus.snoopFanout::max_value                0                       # Request fanout histogram (Count)
system.membus.snoopFanout::total                13299                       # Request fanout histogram (Count)
system.membus.power_state.pwrStateResidencyTicks::UNDEFINED   4389926000                       # Cumulative time (in ticks) in various power states (Tick)
system.membus.reqLayer2.occupancy            28902500                       # Layer occupancy (ticks) (Tick)
system.membus.reqLayer2.utilization               0.0                       # Layer utilization (Ratio)
system.membus.respLayer1.occupancy           36149250                       # Layer occupancy (ticks) (Tick)
system.membus.respLayer1.utilization              0.0                       # Layer utilization (Ratio)
system.membus.snoop_filter.totRequests          26085                       # Total number of requests made to the snoop filter. (Count)
system.membus.snoop_filter.hitSingleRequests        12787                       # Number of requests hitting in the snoop filter with a single holder of the requested data. (Count)
system.membus.snoop_filter.hitMultiRequests            0                       # Number of requests hitting in the snoop filter with multiple (>1) holders of the requested data. (Count)
system.membus.snoop_filter.totSnoops                0                       # Total number of snoops made to the snoop filter. (Count)
system.membus.snoop_filter.hitSingleSnoops            0                       # Number of snoops hitting in the snoop filter with a single holder of the requested data. (Count)
system.membus.snoop_filter.hitMultiSnoops            0                       # Number of snoops hitting in the snoop filter with multiple (>1) holders of the requested data. (Count)
system.workload.inst.arm                            0                       # number of arm instructions executed (Count)
system.workload.inst.quiesce                        0                       # number of quiesce instructions executed (Count)

---------- End Simulation Statistics   ----------
