
---------- Begin Simulation Statistics ----------
simSeconds                                   0.003476                       # Number of seconds simulated (Second)
simTicks                                   3476102000                       # Number of ticks simulated (Tick)
finalTick                                  3476102000                       # Number of ticks from beginning of simulation (restored from checkpoints and never reset) (Tick)
simFreq                                  1000000000000                       # The number of ticks per simulated second ((Tick/Second))
hostSeconds                                     25.98                       # Real time elapsed on the host (Second)
hostTickRate                                133777021                       # The number of ticks simulated per host second (ticks/s) ((Tick/Second))
hostMemory                                     924028                       # Number of bytes of host memory used (Byte)
simInsts                                      6436803                       # Number of instructions simulated (Count)
simOps                                       10693060                       # Number of ops (including micro ops) simulated (Count)
hostInstRate                                   247718                       # Simulator instruction rate (inst/s) ((Count/Second))
hostOpRate                                     411519                       # Simulator op (including micro ops) rate (op/s) ((Count/Second))
system.clk_domain.clock                           500                       # Clock period in ticks (Tick)
system.clk_domain.voltage_domain.voltage            1                       # Voltage in Volts (Volt)
system.cpu.numCycles                          6952205                       # Number of cpu cycles simulated (Cycle)
system.cpu.numWorkItemsStarted                      0                       # Number of work items this cpu started (Count)
system.cpu.numWorkItemsCompleted                    0                       # Number of work items this cpu completed (Count)
system.cpu.instsAdded                        10750584                       # Number of instructions added to the IQ (excludes non-spec) (Count)
system.cpu.nonSpecInstsAdded                       95                       # Number of non-speculative instructions added to the IQ (Count)
system.cpu.instsIssued                       10737421                       # Number of instructions issued (Count)
system.cpu.squashedInstsIssued                      4                       # Number of squashed instructions issued (Count)
system.cpu.squashedInstsExamined                57602                       # Number of squashed instructions iterated over during squash; mainly for profiling (Count)
system.cpu.squashedOperandsExamined             84531                       # Number of squashed operands that are examined and possibly removed from graph (Count)
system.cpu.squashedNonSpecRemoved                  71                       # Number of squashed non-spec instructions that were removed (Count)
system.cpu.numIssuedDist::samples             6735972                       # Number of insts issued each cycle (Count)
system.cpu.numIssuedDist::mean               1.594042                       # Number of insts issued each cycle (Count)
system.cpu.numIssuedDist::stdev              1.383069                       # Number of insts issued each cycle (Count)
system.cpu.numIssuedDist::underflows                0      0.00%      0.00% # Number of insts issued each cycle (Count)
system.cpu.numIssuedDist::0                   1735235     25.76%     25.76% # Number of insts issued each cycle (Count)
system.cpu.numIssuedDist::1                   1805196     26.80%     52.56% # Number of insts issued each cycle (Count)
system.cpu.numIssuedDist::2                   1609897     23.90%     76.46% # Number of insts issued each cycle (Count)
system.cpu.numIssuedDist::3                    921096     13.67%     90.13% # Number of insts issued each cycle (Count)
system.cpu.numIssuedDist::4                    454803      6.75%     96.89% # Number of insts issued each cycle (Count)
system.cpu.numIssuedDist::5                    153717      2.28%     99.17% # Number of insts issued each cycle (Count)
system.cpu.numIssuedDist::6                     31975      0.47%     99.64% # Number of insts issued each cycle (Count)
system.cpu.numIssuedDist::7                     22928      0.34%     99.98% # Number of insts issued each cycle (Count)
system.cpu.numIssuedDist::8                      1125      0.02%    100.00% # Number of insts issued each cycle (Count)
system.cpu.numIssuedDist::overflows                 0      0.00%    100.00% # Number of insts issued each cycle (Count)
system.cpu.numIssuedDist::min_value                 0                       # Number of insts issued each cycle (Count)
system.cpu.numIssuedDist::max_value                 8                       # Number of insts issued each cycle (Count)
system.cpu.numIssuedDist::total               6735972                       # Number of insts issued each cycle (Count)
system.cpu.statFuBusy::No_OpClass                   0      0.00%      0.00% # attempts to use FU when none available (Count)
system.cpu.statFuBusy::IntAlu                       0      0.00%      0.00% # attempts to use FU when none available (Count)
system.cpu.statFuBusy::IntMult                      0      0.00%      0.00% # attempts to use FU when none available (Count)
system.cpu.statFuBusy::IntDiv                       0      0.00%      0.00% # attempts to use FU when none available (Count)
system.cpu.statFuBusy::FloatAdd                     0      0.00%      0.00% # attempts to use FU when none available (Count)
system.cpu.statFuBusy::FloatCmp                     0      0.00%      0.00% # attempts to use FU when none available (Count)
system.cpu.statFuBusy::FloatCvt                     0      0.00%      0.00% # attempts to use FU when none available (Count)
system.cpu.statFuBusy::FloatMult                    0      0.00%      0.00% # attempts to use FU when none available (Count)
system.cpu.statFuBusy::FloatMultAcc                 0      0.00%      0.00% # attempts to use FU when none available (Count)
system.cpu.statFuBusy::FloatDiv                     0      0.00%      0.00% # attempts to use FU when none available (Count)
system.cpu.statFuBusy::FloatMisc                    0      0.00%      0.00% # attempts to use FU when none available (Count)
system.cpu.statFuBusy::FloatSqrt                    0      0.00%      0.00% # attempts to use FU when none available (Count)
system.cpu.statFuBusy::SimdAdd                      0      0.00%      0.00% # attempts to use FU when none available (Count)
system.cpu.statFuBusy::SimdAddAcc                   0      0.00%      0.00% # attempts to use FU when none available (Count)
system.cpu.statFuBusy::SimdAlu                     22      4.88%      4.88% # attempts to use FU when none available (Count)
system.cpu.statFuBusy::SimdCmp                      0      0.00%      4.88% # attempts to use FU when none available (Count)
system.cpu.statFuBusy::SimdCvt                      0      0.00%      4.88% # attempts to use FU when none available (Count)
system.cpu.statFuBusy::SimdMisc                     2      0.44%      5.32% # attempts to use FU when none available (Count)
system.cpu.statFuBusy::SimdMult                     0      0.00%      5.32% # attempts to use FU when none available (Count)
system.cpu.statFuBusy::SimdMultAcc                  0      0.00%      5.32% # attempts to use FU when none available (Count)
system.cpu.statFuBusy::SimdShift                    0      0.00%      5.32% # attempts to use FU when none available (Count)
system.cpu.statFuBusy::SimdShiftAcc                 0      0.00%      5.32% # attempts to use FU when none available (Count)
system.cpu.statFuBusy::SimdDiv                      0      0.00%      5.32% # attempts to use FU when none available (Count)
system.cpu.statFuBusy::SimdSqrt                     0      0.00%      5.32% # attempts to use FU when none available (Count)
system.cpu.statFuBusy::SimdFloatAdd                 0      0.00%      5.32% # attempts to use FU when none available (Count)
system.cpu.statFuBusy::SimdFloatAlu                 0      0.00%      5.32% # attempts to use FU when none available (Count)
system.cpu.statFuBusy::SimdFloatCmp                 0      0.00%      5.32% # attempts to use FU when none available (Count)
system.cpu.statFuBusy::SimdFloatCvt                 0      0.00%      5.32% # attempts to use FU when none available (Count)
system.cpu.statFuBusy::SimdFloatDiv                 0      0.00%      5.32% # attempts to use FU when none available (Count)
system.cpu.statFuBusy::SimdFloatMisc                0      0.00%      5.32% # attempts to use FU when none available (Count)
system.cpu.statFuBusy::SimdFloatMult                0      0.00%      5.32% # attempts to use FU when none available (Count)
system.cpu.statFuBusy::SimdFloatMultAcc             0      0.00%      5.32% # attempts to use FU when none available (Count)
system.cpu.statFuBusy::SimdFloatSqrt                0      0.00%      5.32% # attempts to use FU when none available (Count)
system.cpu.statFuBusy::SimdReduceAdd                0      0.00%      5.32% # attempts to use FU when none available (Count)
system.cpu.statFuBusy::SimdReduceAlu                0      0.00%      5.32% # attempts to use FU when none available (Count)
system.cpu.statFuBusy::SimdReduceCmp                0      0.00%      5.32% # attempts to use FU when none available (Count)
system.cpu.statFuBusy::SimdFloatReduceAdd            0      0.00%      5.32% # attempts to use FU when none available (Count)
system.cpu.statFuBusy::SimdFloatReduceCmp            0      0.00%      5.32% # attempts to use FU when none available (Count)
system.cpu.statFuBusy::SimdAes                      0      0.00%      5.32% # attempts to use FU when none available (Count)
system.cpu.statFuBusy::SimdAesMix                   0      0.00%      5.32% # attempts to use FU when none available (Count)
system.cpu.statFuBusy::SimdSha1Hash                 0      0.00%      5.32% # attempts to use FU when none available (Count)
system.cpu.statFuBusy::SimdSha1Hash2                0      0.00%      5.32% # attempts to use FU when none available (Count)
system.cpu.statFuBusy::SimdSha256Hash               0      0.00%      5.32% # attempts to use FU when none available (Count)
system.cpu.statFuBusy::SimdSha256Hash2              0      0.00%      5.32% # attempts to use FU when none available (Count)
system.cpu.statFuBusy::SimdShaSigma2                0      0.00%      5.32% # attempts to use FU when none available (Count)
system.cpu.statFuBusy::SimdShaSigma3                0      0.00%      5.32% # attempts to use FU when none available (Count)
system.cpu.statFuBusy::SimdPredAlu                  0      0.00%      5.32% # attempts to use FU when none available (Count)
system.cpu.statFuBusy::MemRead                    213     47.23%     52.55% # attempts to use FU when none available (Count)
system.cpu.statFuBusy::MemWrite                   160     35.48%     88.03% # attempts to use FU when none available (Count)
system.cpu.statFuBusy::FloatMemRead                17      3.77%     91.80% # attempts to use FU when none available (Count)
system.cpu.statFuBusy::FloatMemWrite               37      8.20%    100.00% # attempts to use FU when none available (Count)
system.cpu.statFuBusy::IprAccess                    0      0.00%    100.00% # attempts to use FU when none available (Count)
system.cpu.statFuBusy::InstPrefetch                 0      0.00%    100.00% # attempts to use FU when none available (Count)
system.cpu.statIssuedInstType_0::No_OpClass         1939      0.02%      0.02% # Number of instructions issued per FU type, per thread (Count)
system.cpu.statIssuedInstType_0::IntAlu       7364376     68.59%     68.60% # Number of instructions issued per FU type, per thread (Count)
system.cpu.statIssuedInstType_0::IntMult       300080      2.79%     71.40% # Number of instructions issued per FU type, per thread (Count)
system.cpu.statIssuedInstType_0::IntDiv          1714      0.02%     71.41% # Number of instructions issued per FU type, per thread (Count)
system.cpu.statIssuedInstType_0::FloatAdd          152      0.00%     71.42% # Number of instructions issued per FU type, per thread (Count)
system.cpu.statIssuedInstType_0::FloatCmp            0      0.00%     71.42% # Number of instructions issued per FU type, per thread (Count)
system.cpu.statIssuedInstType_0::FloatCvt           32      0.00%     71.42% # Number of instructions issued per FU type, per thread (Count)
system.cpu.statIssuedInstType_0::FloatMult            0      0.00%     71.42% # Number of instructions issued per FU type, per thread (Count)
system.cpu.statIssuedInstType_0::FloatMultAcc            0      0.00%     71.42% # Number of instructions issued per FU type, per thread (Count)
system.cpu.statIssuedInstType_0::FloatDiv            0      0.00%     71.42% # Number of instructions issued per FU type, per thread (Count)
system.cpu.statIssuedInstType_0::FloatMisc            0      0.00%     71.42% # Number of instructions issued per FU type, per thread (Count)
system.cpu.statIssuedInstType_0::FloatSqrt            0      0.00%     71.42% # Number of instructions issued per FU type, per thread (Count)
system.cpu.statIssuedInstType_0::SimdAdd          388      0.00%     71.42% # Number of instructions issued per FU type, per thread (Count)
system.cpu.statIssuedInstType_0::SimdAddAcc            0      0.00%     71.42% # Number of instructions issued per FU type, per thread (Count)
system.cpu.statIssuedInstType_0::SimdAlu          892      0.01%     71.43% # Number of instructions issued per FU type, per thread (Count)
system.cpu.statIssuedInstType_0::SimdCmp            0      0.00%     71.43% # Number of instructions issued per FU type, per thread (Count)
system.cpu.statIssuedInstType_0::SimdCvt         1074      0.01%     71.44% # Number of instructions issued per FU type, per thread (Count)
system.cpu.statIssuedInstType_0::SimdMisc          837      0.01%     71.45% # Number of instructions issued per FU type, per thread (Count)
system.cpu.statIssuedInstType_0::SimdMult            0      0.00%     71.45% # Number of instructions issued per FU type, per thread (Count)
system.cpu.statIssuedInstType_0::SimdMultAcc            0      0.00%     71.45% # Number of instructions issued per FU type, per thread (Count)
system.cpu.statIssuedInstType_0::SimdShift          306      0.00%     71.45% # Number of instructions issued per FU type, per thread (Count)
system.cpu.statIssuedInstType_0::SimdShiftAcc            0      0.00%     71.45% # Number of instructions issued per FU type, per thread (Count)
system.cpu.statIssuedInstType_0::SimdDiv            0      0.00%     71.45% # Number of instructions issued per FU type, per thread (Count)
system.cpu.statIssuedInstType_0::SimdSqrt            0      0.00%     71.45% # Number of instructions issued per FU type, per thread (Count)
system.cpu.statIssuedInstType_0::SimdFloatAdd            0      0.00%     71.45% # Number of instructions issued per FU type, per thread (Count)
system.cpu.statIssuedInstType_0::SimdFloatAlu            0      0.00%     71.45% # Number of instructions issued per FU type, per thread (Count)
system.cpu.statIssuedInstType_0::SimdFloatCmp            0      0.00%     71.45% # Number of instructions issued per FU type, per thread (Count)
system.cpu.statIssuedInstType_0::SimdFloatCvt            0      0.00%     71.45% # Number of instructions issued per FU type, per thread (Count)
system.cpu.statIssuedInstType_0::SimdFloatDiv            0      0.00%     71.45% # Number of instructions issued per FU type, per thread (Count)
system.cpu.statIssuedInstType_0::SimdFloatMisc            0      0.00%     71.45% # Number of instructions issued per FU type, per thread (Count)
system.cpu.statIssuedInstType_0::SimdFloatMult            0      0.00%     71.45% # Number of instructions issued per FU type, per thread (Count)
system.cpu.statIssuedInstType_0::SimdFloatMultAcc            0      0.00%     71.45% # Number of instructions issued per FU type, per thread (Count)
system.cpu.statIssuedInstType_0::SimdFloatSqrt            0      0.00%     71.45% # Number of instructions issued per FU type, per thread (Count)
system.cpu.statIssuedInstType_0::SimdReduceAdd            0      0.00%     71.45% # Number of instructions issued per FU type, per thread (Count)
system.cpu.statIssuedInstType_0::SimdReduceAlu            0      0.00%     71.45% # Number of instructions issued per FU type, per thread (Count)
system.cpu.statIssuedInstType_0::SimdReduceCmp            0      0.00%     71.45% # Number of instructions issued per FU type, per thread (Count)
system.cpu.statIssuedInstType_0::SimdFloatReduceAdd            0      0.00%     71.45% # Number of instructions issued per FU type, per thread (Count)
system.cpu.statIssuedInstType_0::SimdFloatReduceCmp            0      0.00%     71.45% # Number of instructions issued per FU type, per thread (Count)
system.cpu.statIssuedInstType_0::SimdAes            0      0.00%     71.45% # Number of instructions issued per FU type, per thread (Count)
system.cpu.statIssuedInstType_0::SimdAesMix            0      0.00%     71.45% # Number of instructions issued per FU type, per thread (Count)
system.cpu.statIssuedInstType_0::SimdSha1Hash            0      0.00%     71.45% # Number of instructions issued per FU type, per thread (Count)
system.cpu.statIssuedInstType_0::SimdSha1Hash2            0      0.00%     71.45% # Number of instructions issued per FU type, per thread (Count)
system.cpu.statIssuedInstType_0::SimdSha256Hash            0      0.00%     71.45% # Number of instructions issued per FU type, per thread (Count)
system.cpu.statIssuedInstType_0::SimdSha256Hash2            0      0.00%     71.45% # Number of instructions issued per FU type, per thread (Count)
system.cpu.statIssuedInstType_0::SimdShaSigma2            0      0.00%     71.45% # Number of instructions issued per FU type, per thread (Count)
system.cpu.statIssuedInstType_0::SimdShaSigma3            0      0.00%     71.45% # Number of instructions issued per FU type, per thread (Count)
system.cpu.statIssuedInstType_0::SimdPredAlu            0      0.00%     71.45% # Number of instructions issued per FU type, per thread (Count)
system.cpu.statIssuedInstType_0::MemRead      2248343     20.94%     92.39% # Number of instructions issued per FU type, per thread (Count)
system.cpu.statIssuedInstType_0::MemWrite       815358      7.59%     99.98% # Number of instructions issued per FU type, per thread (Count)
system.cpu.statIssuedInstType_0::FloatMemRead         1341      0.01%     99.99% # Number of instructions issued per FU type, per thread (Count)
system.cpu.statIssuedInstType_0::FloatMemWrite          589      0.01%    100.00% # Number of instructions issued per FU type, per thread (Count)
system.cpu.statIssuedInstType_0::IprAccess            0      0.00%    100.00% # Number of instructions issued per FU type, per thread (Count)
system.cpu.statIssuedInstType_0::InstPrefetch            0      0.00%    100.00% # Number of instructions issued per FU type, per thread (Count)
system.cpu.statIssuedInstType_0::total       10737421                       # Number of instructions issued per FU type, per thread (Count)
system.cpu.issueRate                         1.544463                       # Inst issue rate ((Count/Cycle))
system.cpu.fuBusy                                 451                       # FU busy when requested (Count)
system.cpu.fuBusyRate                        0.000042                       # FU busy rate (busy events/executed inst) ((Count/Count))
system.cpu.intInstQueueReads                 28199649                       # Number of integer instruction queue reads (Count)
system.cpu.intInstQueueWrites                10801211                       # Number of integer instruction queue writes (Count)
system.cpu.intInstQueueWakeupAccesses        10723847                       # Number of integer instruction queue wakeup accesses (Count)
system.cpu.fpInstQueueReads                     11620                       # Number of floating instruction queue reads (Count)
system.cpu.fpInstQueueWrites                     7149                       # Number of floating instruction queue writes (Count)
system.cpu.fpInstQueueWakeupAccesses             5493                       # Number of floating instruction queue wakeup accesses (Count)
system.cpu.vecInstQueueReads                        0                       # Number of vector instruction queue reads (Count)
system.cpu.vecInstQueueWrites                       0                       # Number of vector instruction queue writes (Count)
system.cpu.vecInstQueueWakeupAccesses               0                       # Number of vector instruction queue wakeup accesses (Count)
system.cpu.intAluAccesses                    10730086                       # Number of integer alu accesses (Count)
system.cpu.fpAluAccesses                         5847                       # Number of floating point alu accesses (Count)
system.cpu.vecAluAccesses                           0                       # Number of vector alu accesses (Count)
system.cpu.numInsts                          10731952                       # Number of executed instructions (Count)
system.cpu.numLoadInsts                       2248724                       # Number of load instructions executed (Count)
system.cpu.numSquashedInsts                      5469                       # Number of squashed instructions skipped in execute (Count)
system.cpu.numSwp                                   0                       # Number of swp insts executed (Count)
system.cpu.numNop                                   0                       # Number of nop insts executed (Count)
system.cpu.numRefs                            3064503                       # Number of memory reference insts executed (Count)
system.cpu.numBranches                         644239                       # Number of branches executed (Count)
system.cpu.numStoreInsts                       815779                       # Number of stores executed (Count)
system.cpu.numRate                           1.543676                       # Inst execution rate ((Count/Cycle))
system.cpu.timesIdled                            2462                       # Number of times that the entire CPU went into an idle state and unscheduled itself (Count)
system.cpu.idleCycles                          216233                       # Total number of cycles that the CPU has spent unscheduled due to idling (Cycle)
system.cpu.committedInsts                     6436803                       # Number of Instructions Simulated (Count)
system.cpu.committedOps                      10693060                       # Number of Ops (including micro ops) Simulated (Count)
system.cpu.cpi                               1.080071                       # CPI: Cycles Per Instruction ((Cycle/Count))
system.cpu.totalCpi                          1.080071                       # CPI: Total CPI of All Threads ((Cycle/Count))
system.cpu.ipc                               0.925865                       # IPC: Instructions Per Cycle ((Count/Cycle))
system.cpu.totalIpc                          0.925865                       # IPC: Total IPC of All Threads ((Count/Cycle))
system.cpu.intRegfileReads                   13590558                       # Number of integer regfile reads (Count)
system.cpu.intRegfileWrites                   8930791                       # Number of integer regfile writes (Count)
system.cpu.fpRegfileReads                        8600                       # Number of floating regfile reads (Count)
system.cpu.fpRegfileWrites                       4323                       # Number of floating regfile writes (Count)
system.cpu.ccRegfileReads                     2432350                       # number of cc regfile reads (Count)
system.cpu.ccRegfileWrites                    3051987                       # number of cc regfile writes (Count)
system.cpu.miscRegfileReads                   4805745                       # number of misc regfile reads (Count)
system.cpu.miscRegfileWrites                       18                       # number of misc regfile writes (Count)
system.cpu.MemDepUnit__0.insertedLoads        2250815                       # Number of loads inserted to the mem dependence unit. (Count)
system.cpu.MemDepUnit__0.insertedStores        816569                       # Number of stores inserted to the mem dependence unit. (Count)
system.cpu.MemDepUnit__0.conflictingLoads       780118                       # Number of conflicting loads. (Count)
system.cpu.MemDepUnit__0.conflictingStores           47                       # Number of conflicting stores. (Count)
system.cpu.MemDepUnit__1.insertedLoads              0                       # Number of loads inserted to the mem dependence unit. (Count)
system.cpu.MemDepUnit__1.insertedStores             0                       # Number of stores inserted to the mem dependence unit. (Count)
system.cpu.MemDepUnit__1.conflictingLoads            0                       # Number of conflicting loads. (Count)
system.cpu.MemDepUnit__1.conflictingStores            0                       # Number of conflicting stores. (Count)
system.cpu.MemDepUnit__2.insertedLoads              0                       # Number of loads inserted to the mem dependence unit. (Count)
system.cpu.MemDepUnit__2.insertedStores             0                       # Number of stores inserted to the mem dependence unit. (Count)
system.cpu.MemDepUnit__2.conflictingLoads            0                       # Number of conflicting loads. (Count)
system.cpu.MemDepUnit__2.conflictingStores            0                       # Number of conflicting stores. (Count)
system.cpu.MemDepUnit__3.insertedLoads              0                       # Number of loads inserted to the mem dependence unit. (Count)
system.cpu.MemDepUnit__3.insertedStores             0                       # Number of stores inserted to the mem dependence unit. (Count)
system.cpu.MemDepUnit__3.conflictingLoads            0                       # Number of conflicting loads. (Count)
system.cpu.MemDepUnit__3.conflictingStores            0                       # Number of conflicting stores. (Count)
system.cpu.branchPred.lookups                  668048                       # Number of BP lookups (Count)
system.cpu.branchPred.condPredicted            455651                       # Number of conditional branches predicted (Count)
system.cpu.branchPred.condIncorrect              4774                       # Number of conditional branches incorrect (Count)
system.cpu.branchPred.BTBLookups               476542                       # Number of BTB lookups (Count)
system.cpu.branchPred.BTBHits                  475545                       # Number of BTB hits (Count)
system.cpu.branchPred.BTBHitRatio            0.997908                       # BTB Hit Ratio (Ratio)
system.cpu.branchPred.RASUsed                  101838                       # Number of times the RAS was used to get a target. (Count)
system.cpu.branchPred.RASIncorrect                  1                       # Number of incorrect RAS predictions. (Count)
system.cpu.branchPred.indirectLookups             848                       # Number of indirect predictor lookups. (Count)
system.cpu.branchPred.indirectHits                272                       # Number of indirect target hits. (Count)
system.cpu.branchPred.indirectMisses              576                       # Number of indirect misses. (Count)
system.cpu.branchPred.indirectMispredicted          255                       # Number of mispredicted indirect branches. (Count)
system.cpu.branchPred.loop_predictor.correct       426373                       # Number of times the loop predictor is the provider and the prediction is correct (Count)
system.cpu.branchPred.loop_predictor.wrong         8680                       # Number of times the loop predictor is the provider and the prediction is wrong (Count)
system.cpu.branchPred.tage.longestMatchProviderCorrect       350357                       # Number of times TAGE Longest Match is the provider and the prediction is correct (Count)
system.cpu.branchPred.tage.altMatchProviderCorrect         1342                       # Number of times TAGE Alt Match is the provider and the prediction is correct (Count)
system.cpu.branchPred.tage.bimodalAltMatchProviderCorrect          329                       # Number of times TAGE Alt Match is the bimodal and it is the provider and the prediction is correct (Count)
system.cpu.branchPred.tage.bimodalProviderCorrect        39237                       # Number of times there are no hits on the TAGE tables and the bimodal prediction is correct (Count)
system.cpu.branchPred.tage.longestMatchProviderWrong         1914                       # Number of times TAGE Longest Match is the provider and the prediction is wrong (Count)
system.cpu.branchPred.tage.altMatchProviderWrong          762                       # Number of times TAGE Alt Match is the provider and the prediction is wrong (Count)
system.cpu.branchPred.tage.bimodalAltMatchProviderWrong          140                       # Number of times TAGE Alt Match is the bimodal and it is the provider and the prediction is wrong (Count)
system.cpu.branchPred.tage.bimodalProviderWrong          968                       # Number of times there are no hits on the TAGE tables and the bimodal prediction is wrong (Count)
system.cpu.branchPred.tage.altMatchProviderWouldHaveHit          463                       # Number of times TAGE Longest Match is the provider, the prediction is wrong and Alt Match prediction was correct (Count)
system.cpu.branchPred.tage.longestMatchProviderWouldHaveHit          515                       # Number of times TAGE Alt Match is the provider, the prediction is wrong and Longest Match prediction was correct (Count)
system.cpu.branchPred.tage.longestMatchProvider::0            0                       # TAGE provider for longest match (Count)
system.cpu.branchPred.tage.longestMatchProvider::1        14347                       # TAGE provider for longest match (Count)
system.cpu.branchPred.tage.longestMatchProvider::2         2495                       # TAGE provider for longest match (Count)
system.cpu.branchPred.tage.longestMatchProvider::3        16108                       # TAGE provider for longest match (Count)
system.cpu.branchPred.tage.longestMatchProvider::4        15722                       # TAGE provider for longest match (Count)
system.cpu.branchPred.tage.longestMatchProvider::5         9734                       # TAGE provider for longest match (Count)
system.cpu.branchPred.tage.longestMatchProvider::6        17651                       # TAGE provider for longest match (Count)
system.cpu.branchPred.tage.longestMatchProvider::7        11957                       # TAGE provider for longest match (Count)
system.cpu.branchPred.tage.longestMatchProvider::8        25011                       # TAGE provider for longest match (Count)
system.cpu.branchPred.tage.longestMatchProvider::9         8647                       # TAGE provider for longest match (Count)
system.cpu.branchPred.tage.longestMatchProvider::10        31437                       # TAGE provider for longest match (Count)
system.cpu.branchPred.tage.longestMatchProvider::11        23826                       # TAGE provider for longest match (Count)
system.cpu.branchPred.tage.longestMatchProvider::12       177440                       # TAGE provider for longest match (Count)
system.cpu.branchPred.tage.altMatchProvider::0        23057                       # TAGE provider for alt match (Count)
system.cpu.branchPred.tage.altMatchProvider::1        19392                       # TAGE provider for alt match (Count)
system.cpu.branchPred.tage.altMatchProvider::2         2958                       # TAGE provider for alt match (Count)
system.cpu.branchPred.tage.altMatchProvider::3        14227                       # TAGE provider for alt match (Count)
system.cpu.branchPred.tage.altMatchProvider::4        19485                       # TAGE provider for alt match (Count)
system.cpu.branchPred.tage.altMatchProvider::5        13833                       # TAGE provider for alt match (Count)
system.cpu.branchPred.tage.altMatchProvider::6        10735                       # TAGE provider for alt match (Count)
system.cpu.branchPred.tage.altMatchProvider::7        12373                       # TAGE provider for alt match (Count)
system.cpu.branchPred.tage.altMatchProvider::8        24602                       # TAGE provider for alt match (Count)
system.cpu.branchPred.tage.altMatchProvider::9        12540                       # TAGE provider for alt match (Count)
system.cpu.branchPred.tage.altMatchProvider::10        31983                       # TAGE provider for alt match (Count)
system.cpu.branchPred.tage.altMatchProvider::11       169190                       # TAGE provider for alt match (Count)
system.cpu.branchPred.tage.altMatchProvider::12            0                       # TAGE provider for alt match (Count)
system.cpu.commit.commitSquashedInsts           56583                       # The number of squashed insts skipped by commit (Count)
system.cpu.commit.commitNonSpecStalls              24                       # The number of times commit has been forced to stall to communicate backwards (Count)
system.cpu.commit.branchMispredicts              4332                       # The number of times a branch was mispredicted (Count)
system.cpu.commit.numCommittedDist::samples      6726829                       # Number of insts commited each cycle (Count)
system.cpu.commit.numCommittedDist::mean     1.589614                       # Number of insts commited each cycle (Count)
system.cpu.commit.numCommittedDist::stdev     1.853126                       # Number of insts commited each cycle (Count)
system.cpu.commit.numCommittedDist::underflows            0      0.00%      0.00% # Number of insts commited each cycle (Count)
system.cpu.commit.numCommittedDist::0         2279425     33.89%     33.89% # Number of insts commited each cycle (Count)
system.cpu.commit.numCommittedDist::1         1743624     25.92%     59.81% # Number of insts commited each cycle (Count)
system.cpu.commit.numCommittedDist::2         1140118     16.95%     76.75% # Number of insts commited each cycle (Count)
system.cpu.commit.numCommittedDist::3          922977     13.72%     90.48% # Number of insts commited each cycle (Count)
system.cpu.commit.numCommittedDist::4          184710      2.75%     93.22% # Number of insts commited each cycle (Count)
system.cpu.commit.numCommittedDist::5           97624      1.45%     94.67% # Number of insts commited each cycle (Count)
system.cpu.commit.numCommittedDist::6           29721      0.44%     95.11% # Number of insts commited each cycle (Count)
system.cpu.commit.numCommittedDist::7          134057      1.99%     97.11% # Number of insts commited each cycle (Count)
system.cpu.commit.numCommittedDist::8          194573      2.89%    100.00% # Number of insts commited each cycle (Count)
system.cpu.commit.numCommittedDist::overflows            0      0.00%    100.00% # Number of insts commited each cycle (Count)
system.cpu.commit.numCommittedDist::min_value            0                       # Number of insts commited each cycle (Count)
system.cpu.commit.numCommittedDist::max_value            8                       # Number of insts commited each cycle (Count)
system.cpu.commit.numCommittedDist::total      6726829                       # Number of insts commited each cycle (Count)
system.cpu.commit.instsCommitted              6436803                       # Number of instructions committed (Count)
system.cpu.commit.opsCommitted               10693060                       # Number of ops (including micro ops) committed (Count)
system.cpu.commit.memRefs                     3058103                       # Number of memory references committed (Count)
system.cpu.commit.loads                       2243371                       # Number of loads committed (Count)
system.cpu.commit.amos                              0                       # Number of atomic instructions committed (Count)
system.cpu.commit.membars                           4                       # Number of memory barriers committed (Count)
system.cpu.commit.branches                     641846                       # Number of branches committed (Count)
system.cpu.commit.vectorInstructions                0                       # Number of committed Vector instructions. (Count)
system.cpu.commit.floating                       4869                       # Number of committed floating point instructions. (Count)
system.cpu.commit.integer                    10687938                       # Number of committed integer instructions. (Count)
system.cpu.commit.functionCalls                101100                       # Number of function calls committed. (Count)
system.cpu.commit.committedInstType_0::No_OpClass         1320      0.01%      0.01% # Class of committed instruction (Count)
system.cpu.commit.committedInstType_0::IntAlu      7328876     68.54%     68.55% # Class of committed instruction (Count)
system.cpu.commit.committedInstType_0::IntMult       300075      2.81%     71.36% # Class of committed instruction (Count)
system.cpu.commit.committedInstType_0::IntDiv         1538      0.01%     71.37% # Class of committed instruction (Count)
system.cpu.commit.committedInstType_0::FloatAdd           72      0.00%     71.37% # Class of committed instruction (Count)
system.cpu.commit.committedInstType_0::FloatCmp            0      0.00%     71.37% # Class of committed instruction (Count)
system.cpu.commit.committedInstType_0::FloatCvt           32      0.00%     71.37% # Class of committed instruction (Count)
system.cpu.commit.committedInstType_0::FloatMult            0      0.00%     71.37% # Class of committed instruction (Count)
system.cpu.commit.committedInstType_0::FloatMultAcc            0      0.00%     71.37% # Class of committed instruction (Count)
system.cpu.commit.committedInstType_0::FloatDiv            0      0.00%     71.37% # Class of committed instruction (Count)
system.cpu.commit.committedInstType_0::FloatMisc            0      0.00%     71.37% # Class of committed instruction (Count)
system.cpu.commit.committedInstType_0::FloatSqrt            0      0.00%     71.37% # Class of committed instruction (Count)
system.cpu.commit.committedInstType_0::SimdAdd          356      0.00%     71.38% # Class of committed instruction (Count)
system.cpu.commit.committedInstType_0::SimdAddAcc            0      0.00%     71.38% # Class of committed instruction (Count)
system.cpu.commit.committedInstType_0::SimdAlu          755      0.01%     71.38% # Class of committed instruction (Count)
system.cpu.commit.committedInstType_0::SimdCmp            0      0.00%     71.38% # Class of committed instruction (Count)
system.cpu.commit.committedInstType_0::SimdCvt          982      0.01%     71.39% # Class of committed instruction (Count)
system.cpu.commit.committedInstType_0::SimdMisc          801      0.01%     71.40% # Class of committed instruction (Count)
system.cpu.commit.committedInstType_0::SimdMult            0      0.00%     71.40% # Class of committed instruction (Count)
system.cpu.commit.committedInstType_0::SimdMultAcc            0      0.00%     71.40% # Class of committed instruction (Count)
system.cpu.commit.committedInstType_0::SimdShift          150      0.00%     71.40% # Class of committed instruction (Count)
system.cpu.commit.committedInstType_0::SimdShiftAcc            0      0.00%     71.40% # Class of committed instruction (Count)
system.cpu.commit.committedInstType_0::SimdDiv            0      0.00%     71.40% # Class of committed instruction (Count)
system.cpu.commit.committedInstType_0::SimdSqrt            0      0.00%     71.40% # Class of committed instruction (Count)
system.cpu.commit.committedInstType_0::SimdFloatAdd            0      0.00%     71.40% # Class of committed instruction (Count)
system.cpu.commit.committedInstType_0::SimdFloatAlu            0      0.00%     71.40% # Class of committed instruction (Count)
system.cpu.commit.committedInstType_0::SimdFloatCmp            0      0.00%     71.40% # Class of committed instruction (Count)
system.cpu.commit.committedInstType_0::SimdFloatCvt            0      0.00%     71.40% # Class of committed instruction (Count)
system.cpu.commit.committedInstType_0::SimdFloatDiv            0      0.00%     71.40% # Class of committed instruction (Count)
system.cpu.commit.committedInstType_0::SimdFloatMisc            0      0.00%     71.40% # Class of committed instruction (Count)
system.cpu.commit.committedInstType_0::SimdFloatMult            0      0.00%     71.40% # Class of committed instruction (Count)
system.cpu.commit.committedInstType_0::SimdFloatMultAcc            0      0.00%     71.40% # Class of committed instruction (Count)
system.cpu.commit.committedInstType_0::SimdFloatSqrt            0      0.00%     71.40% # Class of committed instruction (Count)
system.cpu.commit.committedInstType_0::SimdReduceAdd            0      0.00%     71.40% # Class of committed instruction (Count)
system.cpu.commit.committedInstType_0::SimdReduceAlu            0      0.00%     71.40% # Class of committed instruction (Count)
system.cpu.commit.committedInstType_0::SimdReduceCmp            0      0.00%     71.40% # Class of committed instruction (Count)
system.cpu.commit.committedInstType_0::SimdFloatReduceAdd            0      0.00%     71.40% # Class of committed instruction (Count)
system.cpu.commit.committedInstType_0::SimdFloatReduceCmp            0      0.00%     71.40% # Class of committed instruction (Count)
system.cpu.commit.committedInstType_0::SimdAes            0      0.00%     71.40% # Class of committed instruction (Count)
system.cpu.commit.committedInstType_0::SimdAesMix            0      0.00%     71.40% # Class of committed instruction (Count)
system.cpu.commit.committedInstType_0::SimdSha1Hash            0      0.00%     71.40% # Class of committed instruction (Count)
system.cpu.commit.committedInstType_0::SimdSha1Hash2            0      0.00%     71.40% # Class of committed instruction (Count)
system.cpu.commit.committedInstType_0::SimdSha256Hash            0      0.00%     71.40% # Class of committed instruction (Count)
system.cpu.commit.committedInstType_0::SimdSha256Hash2            0      0.00%     71.40% # Class of committed instruction (Count)
system.cpu.commit.committedInstType_0::SimdShaSigma2            0      0.00%     71.40% # Class of committed instruction (Count)
system.cpu.commit.committedInstType_0::SimdShaSigma3            0      0.00%     71.40% # Class of committed instruction (Count)
system.cpu.commit.committedInstType_0::SimdPredAlu            0      0.00%     71.40% # Class of committed instruction (Count)
system.cpu.commit.committedInstType_0::MemRead      2242277     20.97%     92.37% # Class of committed instruction (Count)
system.cpu.commit.committedInstType_0::MemWrite       814248      7.61%     99.99% # Class of committed instruction (Count)
system.cpu.commit.committedInstType_0::FloatMemRead         1094      0.01%    100.00% # Class of committed instruction (Count)
system.cpu.commit.committedInstType_0::FloatMemWrite          484      0.00%    100.00% # Class of committed instruction (Count)
system.cpu.commit.committedInstType_0::IprAccess            0      0.00%    100.00% # Class of committed instruction (Count)
system.cpu.commit.committedInstType_0::InstPrefetch            0      0.00%    100.00% # Class of committed instruction (Count)
system.cpu.commit.committedInstType_0::total     10693060                       # Class of committed instruction (Count)
system.cpu.commit.commitEligibleSamples        194573                       # number cycles where commit BW limit reached (Cycle)
system.cpu.dcache.demandHits::cpu.data        2014248                       # number of demand (read+write) hits (Count)
system.cpu.dcache.demandHits::total           2014248                       # number of demand (read+write) hits (Count)
system.cpu.dcache.overallHits::cpu.data       2014248                       # number of overall hits (Count)
system.cpu.dcache.overallHits::total          2014248                       # number of overall hits (Count)
system.cpu.dcache.demandMisses::cpu.data        22078                       # number of demand (read+write) misses (Count)
system.cpu.dcache.demandMisses::total           22078                       # number of demand (read+write) misses (Count)
system.cpu.dcache.overallMisses::cpu.data        22078                       # number of overall misses (Count)
system.cpu.dcache.overallMisses::total          22078                       # number of overall misses (Count)
system.cpu.dcache.demandMissLatency::cpu.data   1343492000                       # number of demand (read+write) miss ticks (Tick)
system.cpu.dcache.demandMissLatency::total   1343492000                       # number of demand (read+write) miss ticks (Tick)
system.cpu.dcache.overallMissLatency::cpu.data   1343492000                       # number of overall miss ticks (Tick)
system.cpu.dcache.overallMissLatency::total   1343492000                       # number of overall miss ticks (Tick)
system.cpu.dcache.demandAccesses::cpu.data      2036326                       # number of demand (read+write) accesses (Count)
system.cpu.dcache.demandAccesses::total       2036326                       # number of demand (read+write) accesses (Count)
system.cpu.dcache.overallAccesses::cpu.data      2036326                       # number of overall (read+write) accesses (Count)
system.cpu.dcache.overallAccesses::total      2036326                       # number of overall (read+write) accesses (Count)
system.cpu.dcache.demandMissRate::cpu.data     0.010842                       # miss rate for demand accesses (Ratio)
system.cpu.dcache.demandMissRate::total      0.010842                       # miss rate for demand accesses (Ratio)
system.cpu.dcache.overallMissRate::cpu.data     0.010842                       # miss rate for overall accesses (Ratio)
system.cpu.dcache.overallMissRate::total     0.010842                       # miss rate for overall accesses (Ratio)
system.cpu.dcache.demandAvgMissLatency::cpu.data 60852.069934                       # average overall miss latency in ticks ((Tick/Count))
system.cpu.dcache.demandAvgMissLatency::total 60852.069934                       # average overall miss latency in ticks ((Tick/Count))
system.cpu.dcache.overallAvgMissLatency::cpu.data 60852.069934                       # average overall miss latency ((Tick/Count))
system.cpu.dcache.overallAvgMissLatency::total 60852.069934                       # average overall miss latency ((Tick/Count))
system.cpu.dcache.blockedCycles::no_mshrs         1618                       # number of cycles access was blocked (Cycle)
system.cpu.dcache.blockedCycles::no_targets            0                       # number of cycles access was blocked (Cycle)
system.cpu.dcache.blockedCauses::no_mshrs           45                       # number of times access was blocked (Count)
system.cpu.dcache.blockedCauses::no_targets            0                       # number of times access was blocked (Count)
system.cpu.dcache.avgBlocked::no_mshrs      35.955556                       # average number of cycles each access was blocked ((Cycle/Count))
system.cpu.dcache.avgBlocked::no_targets          nan                       # average number of cycles each access was blocked ((Cycle/Count))
system.cpu.dcache.writebacks::writebacks        10840                       # number of writebacks (Count)
system.cpu.dcache.writebacks::total             10840                       # number of writebacks (Count)
system.cpu.dcache.demandMshrHits::cpu.data         7446                       # number of demand (read+write) MSHR hits (Count)
system.cpu.dcache.demandMshrHits::total          7446                       # number of demand (read+write) MSHR hits (Count)
system.cpu.dcache.overallMshrHits::cpu.data         7446                       # number of overall MSHR hits (Count)
system.cpu.dcache.overallMshrHits::total         7446                       # number of overall MSHR hits (Count)
system.cpu.dcache.demandMshrMisses::cpu.data        14632                       # number of demand (read+write) MSHR misses (Count)
system.cpu.dcache.demandMshrMisses::total        14632                       # number of demand (read+write) MSHR misses (Count)
system.cpu.dcache.overallMshrMisses::cpu.data        14632                       # number of overall MSHR misses (Count)
system.cpu.dcache.overallMshrMisses::total        14632                       # number of overall MSHR misses (Count)
system.cpu.dcache.demandMshrMissLatency::cpu.data    844147000                       # number of demand (read+write) MSHR miss ticks (Tick)
system.cpu.dcache.demandMshrMissLatency::total    844147000                       # number of demand (read+write) MSHR miss ticks (Tick)
system.cpu.dcache.overallMshrMissLatency::cpu.data    844147000                       # number of overall MSHR miss ticks (Tick)
system.cpu.dcache.overallMshrMissLatency::total    844147000                       # number of overall MSHR miss ticks (Tick)
system.cpu.dcache.demandMshrMissRate::cpu.data     0.007185                       # mshr miss ratio for demand accesses (Ratio)
system.cpu.dcache.demandMshrMissRate::total     0.007185                       # mshr miss ratio for demand accesses (Ratio)
system.cpu.dcache.overallMshrMissRate::cpu.data     0.007185                       # mshr miss ratio for overall accesses (Ratio)
system.cpu.dcache.overallMshrMissRate::total     0.007185                       # mshr miss ratio for overall accesses (Ratio)
system.cpu.dcache.demandAvgMshrMissLatency::cpu.data 57691.839803                       # average overall mshr miss latency ((Tick/Count))
system.cpu.dcache.demandAvgMshrMissLatency::total 57691.839803                       # average overall mshr miss latency ((Tick/Count))
system.cpu.dcache.overallAvgMshrMissLatency::cpu.data 57691.839803                       # average overall mshr miss latency ((Tick/Count))
system.cpu.dcache.overallAvgMshrMissLatency::total 57691.839803                       # average overall mshr miss latency ((Tick/Count))
system.cpu.dcache.replacements                  14567                       # number of replacements (Count)
system.cpu.dcache.LockedRMWReadReq.hits::cpu.data            2                       # number of LockedRMWReadReq hits (Count)
system.cpu.dcache.LockedRMWReadReq.hits::total            2                       # number of LockedRMWReadReq hits (Count)
system.cpu.dcache.LockedRMWReadReq.accesses::cpu.data            2                       # number of LockedRMWReadReq accesses(hits+misses) (Count)
system.cpu.dcache.LockedRMWReadReq.accesses::total            2                       # number of LockedRMWReadReq accesses(hits+misses) (Count)
system.cpu.dcache.LockedRMWReadReq.mshrMissLatency::cpu.data         8000                       # number of LockedRMWReadReq MSHR miss ticks (Tick)
system.cpu.dcache.LockedRMWReadReq.mshrMissLatency::total         8000                       # number of LockedRMWReadReq MSHR miss ticks (Tick)
system.cpu.dcache.LockedRMWReadReq.avgMshrMissLatency::cpu.data          inf                       # average LockedRMWReadReq mshr miss latency ((Tick/Count))
system.cpu.dcache.LockedRMWReadReq.avgMshrMissLatency::total          inf                       # average LockedRMWReadReq mshr miss latency ((Tick/Count))
system.cpu.dcache.LockedRMWWriteReq.hits::cpu.data            2                       # number of LockedRMWWriteReq hits (Count)
system.cpu.dcache.LockedRMWWriteReq.hits::total            2                       # number of LockedRMWWriteReq hits (Count)
system.cpu.dcache.LockedRMWWriteReq.accesses::cpu.data            2                       # number of LockedRMWWriteReq accesses(hits+misses) (Count)
system.cpu.dcache.LockedRMWWriteReq.accesses::total            2                       # number of LockedRMWWriteReq accesses(hits+misses) (Count)
system.cpu.dcache.ReadReq.hits::cpu.data      1206737                       # number of ReadReq hits (Count)
system.cpu.dcache.ReadReq.hits::total         1206737                       # number of ReadReq hits (Count)
system.cpu.dcache.ReadReq.misses::cpu.data        14856                       # number of ReadReq misses (Count)
system.cpu.dcache.ReadReq.misses::total         14856                       # number of ReadReq misses (Count)
system.cpu.dcache.ReadReq.missLatency::cpu.data    959801000                       # number of ReadReq miss ticks (Tick)
system.cpu.dcache.ReadReq.missLatency::total    959801000                       # number of ReadReq miss ticks (Tick)
system.cpu.dcache.ReadReq.accesses::cpu.data      1221593                       # number of ReadReq accesses(hits+misses) (Count)
system.cpu.dcache.ReadReq.accesses::total      1221593                       # number of ReadReq accesses(hits+misses) (Count)
system.cpu.dcache.ReadReq.missRate::cpu.data     0.012161                       # miss rate for ReadReq accesses (Ratio)
system.cpu.dcache.ReadReq.missRate::total     0.012161                       # miss rate for ReadReq accesses (Ratio)
system.cpu.dcache.ReadReq.avgMissLatency::cpu.data 64606.960151                       # average ReadReq miss latency ((Tick/Count))
system.cpu.dcache.ReadReq.avgMissLatency::total 64606.960151                       # average ReadReq miss latency ((Tick/Count))
system.cpu.dcache.ReadReq.mshrHits::cpu.data         7440                       # number of ReadReq MSHR hits (Count)
system.cpu.dcache.ReadReq.mshrHits::total         7440                       # number of ReadReq MSHR hits (Count)
system.cpu.dcache.ReadReq.mshrMisses::cpu.data         7416                       # number of ReadReq MSHR misses (Count)
system.cpu.dcache.ReadReq.mshrMisses::total         7416                       # number of ReadReq MSHR misses (Count)
system.cpu.dcache.ReadReq.mshrMissLatency::cpu.data    467944500                       # number of ReadReq MSHR miss ticks (Tick)
system.cpu.dcache.ReadReq.mshrMissLatency::total    467944500                       # number of ReadReq MSHR miss ticks (Tick)
system.cpu.dcache.ReadReq.mshrMissRate::cpu.data     0.006071                       # mshr miss rate for ReadReq accesses (Ratio)
system.cpu.dcache.ReadReq.mshrMissRate::total     0.006071                       # mshr miss rate for ReadReq accesses (Ratio)
system.cpu.dcache.ReadReq.avgMshrMissLatency::cpu.data 63099.312298                       # average ReadReq mshr miss latency ((Tick/Count))
system.cpu.dcache.ReadReq.avgMshrMissLatency::total 63099.312298                       # average ReadReq mshr miss latency ((Tick/Count))
system.cpu.dcache.WriteReq.hits::cpu.data       807511                       # number of WriteReq hits (Count)
system.cpu.dcache.WriteReq.hits::total         807511                       # number of WriteReq hits (Count)
system.cpu.dcache.WriteReq.misses::cpu.data         7222                       # number of WriteReq misses (Count)
system.cpu.dcache.WriteReq.misses::total         7222                       # number of WriteReq misses (Count)
system.cpu.dcache.WriteReq.missLatency::cpu.data    383691000                       # number of WriteReq miss ticks (Tick)
system.cpu.dcache.WriteReq.missLatency::total    383691000                       # number of WriteReq miss ticks (Tick)
system.cpu.dcache.WriteReq.accesses::cpu.data       814733                       # number of WriteReq accesses(hits+misses) (Count)
system.cpu.dcache.WriteReq.accesses::total       814733                       # number of WriteReq accesses(hits+misses) (Count)
system.cpu.dcache.WriteReq.missRate::cpu.data     0.008864                       # miss rate for WriteReq accesses (Ratio)
system.cpu.dcache.WriteReq.missRate::total     0.008864                       # miss rate for WriteReq accesses (Ratio)
system.cpu.dcache.WriteReq.avgMissLatency::cpu.data 53128.080864                       # average WriteReq miss latency ((Tick/Count))
system.cpu.dcache.WriteReq.avgMissLatency::total 53128.080864                       # average WriteReq miss latency ((Tick/Count))
system.cpu.dcache.WriteReq.mshrHits::cpu.data            6                       # number of WriteReq MSHR hits (Count)
system.cpu.dcache.WriteReq.mshrHits::total            6                       # number of WriteReq MSHR hits (Count)
system.cpu.dcache.WriteReq.mshrMisses::cpu.data         7216                       # number of WriteReq MSHR misses (Count)
system.cpu.dcache.WriteReq.mshrMisses::total         7216                       # number of WriteReq MSHR misses (Count)
system.cpu.dcache.WriteReq.mshrMissLatency::cpu.data    376202500                       # number of WriteReq MSHR miss ticks (Tick)
system.cpu.dcache.WriteReq.mshrMissLatency::total    376202500                       # number of WriteReq MSHR miss ticks (Tick)
system.cpu.dcache.WriteReq.mshrMissRate::cpu.data     0.008857                       # mshr miss rate for WriteReq accesses (Ratio)
system.cpu.dcache.WriteReq.mshrMissRate::total     0.008857                       # mshr miss rate for WriteReq accesses (Ratio)
system.cpu.dcache.WriteReq.avgMshrMissLatency::cpu.data 52134.492794                       # average WriteReq mshr miss latency ((Tick/Count))
system.cpu.dcache.WriteReq.avgMshrMissLatency::total 52134.492794                       # average WriteReq mshr miss latency ((Tick/Count))
system.cpu.dcache.power_state.pwrStateResidencyTicks::UNDEFINED   3476102000                       # Cumulative time (in ticks) in various power states (Tick)
system.cpu.dcache.tags.tagsInUse            63.952874                       # Average ticks per tags in use ((Tick/Count))
system.cpu.dcache.tags.totalRefs              2028884                       # Total number of references to valid blocks. (Count)
system.cpu.dcache.tags.sampledRefs              14631                       # Sample count of references to valid blocks. (Count)
system.cpu.dcache.tags.avgRefs             138.670221                       # Average number of references to valid blocks. ((Count/Count))
system.cpu.dcache.tags.warmupTick             9977500                       # The tick when the warmup percentage was hit. (Tick)
system.cpu.dcache.tags.occupancies::cpu.data    63.952874                       # Average occupied blocks per tick, per requestor ((Count/Tick))
system.cpu.dcache.tags.avgOccs::cpu.data     0.999264                       # Average percentage of cache occupancy ((Ratio/Tick))
system.cpu.dcache.tags.avgOccs::total        0.999264                       # Average percentage of cache occupancy ((Ratio/Tick))
system.cpu.dcache.tags.occupanciesTaskId::1024           64                       # Occupied blocks per task id (Count)
system.cpu.dcache.tags.ageTaskId_1024::0           47                       # Occupied blocks per task id, per block age (Count)
system.cpu.dcache.tags.ageTaskId_1024::1           17                       # Occupied blocks per task id, per block age (Count)
system.cpu.dcache.tags.ratioOccsTaskId::1024            1                       # Ratio of occupied blocks and all blocks, per task id (Ratio)
system.cpu.dcache.tags.tagAccesses            4087291                       # Number of tag accesses (Count)
system.cpu.dcache.tags.dataAccesses           4087291                       # Number of data accesses (Count)
system.cpu.dcache.tags.power_state.pwrStateResidencyTicks::UNDEFINED   3476102000                       # Cumulative time (in ticks) in various power states (Tick)
system.cpu.decode.idleCycles                   524286                       # Number of cycles decode is idle (Cycle)
system.cpu.decode.blockedCycles               4853112                       # Number of cycles decode is blocked (Cycle)
system.cpu.decode.runCycles                    194387                       # Number of cycles decode is running (Cycle)
system.cpu.decode.unblockCycles               1159619                       # Number of cycles decode is unblocking (Cycle)
system.cpu.decode.squashCycles                   4568                       # Number of cycles decode is squashing (Cycle)
system.cpu.decode.branchResolved               469863                       # Number of times decode resolved a branch (Count)
system.cpu.decode.branchMispred                   617                       # Number of times decode detected a branch misprediction (Count)
system.cpu.decode.decodedInsts               10782490                       # Number of instructions handled by decode (Count)
system.cpu.decode.squashedInsts                  2567                       # Number of squashed instructions handled by decode (Count)
system.cpu.fetch.icacheStallCycles             992421                       # Number of cycles fetch is stalled on an Icache miss (Cycle)
system.cpu.fetch.insts                        6557615                       # Number of instructions fetch has processed (Count)
system.cpu.fetch.branches                      668048                       # Number of branches that fetch encountered (Count)
system.cpu.fetch.predictedBranches             577655                       # Number of branches that fetch has predicted taken (Count)
system.cpu.fetch.cycles                       5736467                       # Number of cycles fetch has run and was not squashing or blocked (Cycle)
system.cpu.fetch.squashCycles                   10354                       # Number of cycles fetch has spent squashing (Cycle)
system.cpu.fetch.miscStallCycles                  203                       # Number of cycles fetch has spent waiting on interrupts, or bad addresses, or out of MSHRs (Cycle)
system.cpu.fetch.pendingTrapStallCycles          1686                       # Number of stall cycles due to pending traps (Cycle)
system.cpu.fetch.icacheWaitRetryStallCycles           18                       # Number of stall cycles due to full MSHR (Cycle)
system.cpu.fetch.cacheLines                    889155                       # Number of cache lines fetched (Count)
system.cpu.fetch.icacheSquashes                  1607                       # Number of outstanding Icache misses that were squashed (Count)
system.cpu.fetch.nisnDist::samples            6735972                       # Number of instructions fetched each cycle (Total) (Count)
system.cpu.fetch.nisnDist::mean              1.619965                       # Number of instructions fetched each cycle (Total) (Count)
system.cpu.fetch.nisnDist::stdev             2.796867                       # Number of instructions fetched each cycle (Total) (Count)
system.cpu.fetch.nisnDist::underflows               0      0.00%      0.00% # Number of instructions fetched each cycle (Total) (Count)
system.cpu.fetch.nisnDist::0                  4601980     68.32%     68.32% # Number of instructions fetched each cycle (Total) (Count)
system.cpu.fetch.nisnDist::1                   282688      4.20%     72.52% # Number of instructions fetched each cycle (Total) (Count)
system.cpu.fetch.nisnDist::2                   195108      2.90%     75.41% # Number of instructions fetched each cycle (Total) (Count)
system.cpu.fetch.nisnDist::3                   253367      3.76%     79.17% # Number of instructions fetched each cycle (Total) (Count)
system.cpu.fetch.nisnDist::4                   164490      2.44%     81.62% # Number of instructions fetched each cycle (Total) (Count)
system.cpu.fetch.nisnDist::5                   176980      2.63%     84.24% # Number of instructions fetched each cycle (Total) (Count)
system.cpu.fetch.nisnDist::6                   181367      2.69%     86.94% # Number of instructions fetched each cycle (Total) (Count)
system.cpu.fetch.nisnDist::7                   191963      2.85%     89.79% # Number of instructions fetched each cycle (Total) (Count)
system.cpu.fetch.nisnDist::8                   688029     10.21%    100.00% # Number of instructions fetched each cycle (Total) (Count)
system.cpu.fetch.nisnDist::overflows                0      0.00%    100.00% # Number of instructions fetched each cycle (Total) (Count)
system.cpu.fetch.nisnDist::min_value                0                       # Number of instructions fetched each cycle (Total) (Count)
system.cpu.fetch.nisnDist::max_value                8                       # Number of instructions fetched each cycle (Total) (Count)
system.cpu.fetch.nisnDist::total              6735972                       # Number of instructions fetched each cycle (Total) (Count)
system.cpu.fetch.branchRate                  0.096092                       # Number of branch fetches per cycle (Ratio)
system.cpu.fetch.rate                        0.943242                       # Number of inst fetches per cycle ((Count/Cycle))
system.cpu.icache.demandHits::cpu.inst         885363                       # number of demand (read+write) hits (Count)
system.cpu.icache.demandHits::total            885363                       # number of demand (read+write) hits (Count)
system.cpu.icache.overallHits::cpu.inst        885363                       # number of overall hits (Count)
system.cpu.icache.overallHits::total           885363                       # number of overall hits (Count)
system.cpu.icache.demandMisses::cpu.inst         3792                       # number of demand (read+write) misses (Count)
system.cpu.icache.demandMisses::total            3792                       # number of demand (read+write) misses (Count)
system.cpu.icache.overallMisses::cpu.inst         3792                       # number of overall misses (Count)
system.cpu.icache.overallMisses::total           3792                       # number of overall misses (Count)
system.cpu.icache.demandMissLatency::cpu.inst    225104998                       # number of demand (read+write) miss ticks (Tick)
system.cpu.icache.demandMissLatency::total    225104998                       # number of demand (read+write) miss ticks (Tick)
system.cpu.icache.overallMissLatency::cpu.inst    225104998                       # number of overall miss ticks (Tick)
system.cpu.icache.overallMissLatency::total    225104998                       # number of overall miss ticks (Tick)
system.cpu.icache.demandAccesses::cpu.inst       889155                       # number of demand (read+write) accesses (Count)
system.cpu.icache.demandAccesses::total        889155                       # number of demand (read+write) accesses (Count)
system.cpu.icache.overallAccesses::cpu.inst       889155                       # number of overall (read+write) accesses (Count)
system.cpu.icache.overallAccesses::total       889155                       # number of overall (read+write) accesses (Count)
system.cpu.icache.demandMissRate::cpu.inst     0.004265                       # miss rate for demand accesses (Ratio)
system.cpu.icache.demandMissRate::total      0.004265                       # miss rate for demand accesses (Ratio)
system.cpu.icache.overallMissRate::cpu.inst     0.004265                       # miss rate for overall accesses (Ratio)
system.cpu.icache.overallMissRate::total     0.004265                       # miss rate for overall accesses (Ratio)
system.cpu.icache.demandAvgMissLatency::cpu.inst 59363.132384                       # average overall miss latency in ticks ((Tick/Count))
system.cpu.icache.demandAvgMissLatency::total 59363.132384                       # average overall miss latency in ticks ((Tick/Count))
system.cpu.icache.overallAvgMissLatency::cpu.inst 59363.132384                       # average overall miss latency ((Tick/Count))
system.cpu.icache.overallAvgMissLatency::total 59363.132384                       # average overall miss latency ((Tick/Count))
system.cpu.icache.blockedCycles::no_mshrs          402                       # number of cycles access was blocked (Cycle)
system.cpu.icache.blockedCycles::no_targets            0                       # number of cycles access was blocked (Cycle)
system.cpu.icache.blockedCauses::no_mshrs           10                       # number of times access was blocked (Count)
system.cpu.icache.blockedCauses::no_targets            0                       # number of times access was blocked (Count)
system.cpu.icache.avgBlocked::no_mshrs      40.200000                       # average number of cycles each access was blocked ((Cycle/Count))
system.cpu.icache.avgBlocked::no_targets          nan                       # average number of cycles each access was blocked ((Cycle/Count))
system.cpu.icache.demandMshrHits::cpu.inst          514                       # number of demand (read+write) MSHR hits (Count)
system.cpu.icache.demandMshrHits::total           514                       # number of demand (read+write) MSHR hits (Count)
system.cpu.icache.overallMshrHits::cpu.inst          514                       # number of overall MSHR hits (Count)
system.cpu.icache.overallMshrHits::total          514                       # number of overall MSHR hits (Count)
system.cpu.icache.demandMshrMisses::cpu.inst         3278                       # number of demand (read+write) MSHR misses (Count)
system.cpu.icache.demandMshrMisses::total         3278                       # number of demand (read+write) MSHR misses (Count)
system.cpu.icache.overallMshrMisses::cpu.inst         3278                       # number of overall MSHR misses (Count)
system.cpu.icache.overallMshrMisses::total         3278                       # number of overall MSHR misses (Count)
system.cpu.icache.demandMshrMissLatency::cpu.inst    192739999                       # number of demand (read+write) MSHR miss ticks (Tick)
system.cpu.icache.demandMshrMissLatency::total    192739999                       # number of demand (read+write) MSHR miss ticks (Tick)
system.cpu.icache.overallMshrMissLatency::cpu.inst    192739999                       # number of overall MSHR miss ticks (Tick)
system.cpu.icache.overallMshrMissLatency::total    192739999                       # number of overall MSHR miss ticks (Tick)
system.cpu.icache.demandMshrMissRate::cpu.inst     0.003687                       # mshr miss ratio for demand accesses (Ratio)
system.cpu.icache.demandMshrMissRate::total     0.003687                       # mshr miss ratio for demand accesses (Ratio)
system.cpu.icache.overallMshrMissRate::cpu.inst     0.003687                       # mshr miss ratio for overall accesses (Ratio)
system.cpu.icache.overallMshrMissRate::total     0.003687                       # mshr miss ratio for overall accesses (Ratio)
system.cpu.icache.demandAvgMshrMissLatency::cpu.inst 58798.047285                       # average overall mshr miss latency ((Tick/Count))
system.cpu.icache.demandAvgMshrMissLatency::total 58798.047285                       # average overall mshr miss latency ((Tick/Count))
system.cpu.icache.overallAvgMshrMissLatency::cpu.inst 58798.047285                       # average overall mshr miss latency ((Tick/Count))
system.cpu.icache.overallAvgMshrMissLatency::total 58798.047285                       # average overall mshr miss latency ((Tick/Count))
system.cpu.icache.replacements                   3212                       # number of replacements (Count)
system.cpu.icache.ReadReq.hits::cpu.inst       885363                       # number of ReadReq hits (Count)
system.cpu.icache.ReadReq.hits::total          885363                       # number of ReadReq hits (Count)
system.cpu.icache.ReadReq.misses::cpu.inst         3792                       # number of ReadReq misses (Count)
system.cpu.icache.ReadReq.misses::total          3792                       # number of ReadReq misses (Count)
system.cpu.icache.ReadReq.missLatency::cpu.inst    225104998                       # number of ReadReq miss ticks (Tick)
system.cpu.icache.ReadReq.missLatency::total    225104998                       # number of ReadReq miss ticks (Tick)
system.cpu.icache.ReadReq.accesses::cpu.inst       889155                       # number of ReadReq accesses(hits+misses) (Count)
system.cpu.icache.ReadReq.accesses::total       889155                       # number of ReadReq accesses(hits+misses) (Count)
system.cpu.icache.ReadReq.missRate::cpu.inst     0.004265                       # miss rate for ReadReq accesses (Ratio)
system.cpu.icache.ReadReq.missRate::total     0.004265                       # miss rate for ReadReq accesses (Ratio)
system.cpu.icache.ReadReq.avgMissLatency::cpu.inst 59363.132384                       # average ReadReq miss latency ((Tick/Count))
system.cpu.icache.ReadReq.avgMissLatency::total 59363.132384                       # average ReadReq miss latency ((Tick/Count))
system.cpu.icache.ReadReq.mshrHits::cpu.inst          514                       # number of ReadReq MSHR hits (Count)
system.cpu.icache.ReadReq.mshrHits::total          514                       # number of ReadReq MSHR hits (Count)
system.cpu.icache.ReadReq.mshrMisses::cpu.inst         3278                       # number of ReadReq MSHR misses (Count)
system.cpu.icache.ReadReq.mshrMisses::total         3278                       # number of ReadReq MSHR misses (Count)
system.cpu.icache.ReadReq.mshrMissLatency::cpu.inst    192739999                       # number of ReadReq MSHR miss ticks (Tick)
system.cpu.icache.ReadReq.mshrMissLatency::total    192739999                       # number of ReadReq MSHR miss ticks (Tick)
system.cpu.icache.ReadReq.mshrMissRate::cpu.inst     0.003687                       # mshr miss rate for ReadReq accesses (Ratio)
system.cpu.icache.ReadReq.mshrMissRate::total     0.003687                       # mshr miss rate for ReadReq accesses (Ratio)
system.cpu.icache.ReadReq.avgMshrMissLatency::cpu.inst 58798.047285                       # average ReadReq mshr miss latency ((Tick/Count))
system.cpu.icache.ReadReq.avgMshrMissLatency::total 58798.047285                       # average ReadReq mshr miss latency ((Tick/Count))
system.cpu.icache.power_state.pwrStateResidencyTicks::UNDEFINED   3476102000                       # Cumulative time (in ticks) in various power states (Tick)
system.cpu.icache.tags.tagsInUse            63.914890                       # Average ticks per tags in use ((Tick/Count))
system.cpu.icache.tags.totalRefs               888640                       # Total number of references to valid blocks. (Count)
system.cpu.icache.tags.sampledRefs               3277                       # Sample count of references to valid blocks. (Count)
system.cpu.icache.tags.avgRefs             271.174855                       # Average number of references to valid blocks. ((Count/Count))
system.cpu.icache.tags.warmupTick            11461500                       # The tick when the warmup percentage was hit. (Tick)
system.cpu.icache.tags.occupancies::cpu.inst    63.914890                       # Average occupied blocks per tick, per requestor ((Count/Tick))
system.cpu.icache.tags.avgOccs::cpu.inst     0.998670                       # Average percentage of cache occupancy ((Ratio/Tick))
system.cpu.icache.tags.avgOccs::total        0.998670                       # Average percentage of cache occupancy ((Ratio/Tick))
system.cpu.icache.tags.occupanciesTaskId::1024           64                       # Occupied blocks per task id (Count)
system.cpu.icache.tags.ageTaskId_1024::0           63                       # Occupied blocks per task id, per block age (Count)
system.cpu.icache.tags.ageTaskId_1024::1            1                       # Occupied blocks per task id, per block age (Count)
system.cpu.icache.tags.ratioOccsTaskId::1024            1                       # Ratio of occupied blocks and all blocks, per task id (Ratio)
system.cpu.icache.tags.tagAccesses            1781587                       # Number of tag accesses (Count)
system.cpu.icache.tags.dataAccesses           1781587                       # Number of data accesses (Count)
system.cpu.icache.tags.power_state.pwrStateResidencyTicks::UNDEFINED   3476102000                       # Cumulative time (in ticks) in various power states (Tick)
system.cpu.iew.idleCycles                           0                       # Number of cycles IEW is idle (Cycle)
system.cpu.iew.squashCycles                      4568                       # Number of cycles IEW is squashing (Cycle)
system.cpu.iew.blockCycles                       4575                       # Number of cycles IEW is blocking (Cycle)
system.cpu.iew.unblockCycles                     2302                       # Number of cycles IEW is unblocking (Cycle)
system.cpu.iew.dispatchedInsts               10750679                       # Number of instructions dispatched to IQ (Count)
system.cpu.iew.dispSquashedInsts                 1320                       # Number of squashed instructions skipped by dispatch (Count)
system.cpu.iew.dispLoadInsts                  2250815                       # Number of dispatched load instructions (Count)
system.cpu.iew.dispStoreInsts                  816569                       # Number of dispatched store instructions (Count)
system.cpu.iew.dispNonSpecInsts                    46                       # Number of dispatched non-speculative instructions (Count)
system.cpu.iew.iqFullEvents                         0                       # Number of times the IQ has become full, causing a stall (Count)
system.cpu.iew.lsqFullEvents                     2300                       # Number of times the LSQ has become full, causing a stall (Count)
system.cpu.iew.memOrderViolationEvents             82                       # Number of memory order violations (Count)
system.cpu.iew.predictedTakenIncorrect           1799                       # Number of branches that were predicted taken incorrectly (Count)
system.cpu.iew.predictedNotTakenIncorrect         2723                       # Number of branches that were predicted not taken incorrectly (Count)
system.cpu.iew.branchMispredicts                 4522                       # Number of branch mispredicts detected at execute (Count)
system.cpu.iew.instsToCommit                 10730203                       # Cumulative count of insts sent to commit (Count)
system.cpu.iew.writebackCount                10729340                       # Cumulative count of insts written-back (Count)
system.cpu.iew.producerInst                   7943902                       # Number of instructions producing a value (Count)
system.cpu.iew.consumerInst                  10840897                       # Number of instructions consuming a value (Count)
system.cpu.iew.wbRate                        1.543300                       # Insts written-back per cycle ((Count/Cycle))
system.cpu.iew.wbFanout                      0.732772                       # Average fanout of values written-back ((Count/Count))
system.cpu.interrupts.clk_domain.clock           8000                       # Clock period in ticks (Tick)
system.cpu.lsq0.forwLoads                     1026943                       # Number of loads that had data forwarded from stores (Count)
system.cpu.lsq0.squashedLoads                    7444                       # Number of loads squashed (Count)
system.cpu.lsq0.ignoredResponses                   22                       # Number of memory responses ignored because the instruction is squashed (Count)
system.cpu.lsq0.memOrderViolation                  82                       # Number of memory ordering violations (Count)
[...]
system.mem_ctrls.dram.numReads::cpu.inst         2349                       # Number of read requests responded to by this memory (Count)
system.mem_ctrls.dram.numReads::cpu.data        10971                       # Number of read requests responded to by this memory (Count)
system.mem_ctrls.dram.numReads::total           13320                       # Number of read requests responded to by this memory (Count)
system.mem_ctrls.dram.numWrites::writebacks         7936                       # Number of write requests responded to by this memory (Count)
system.mem_ctrls.dram.numWrites::total           7936                       # Number of write requests responded to by this memory (Count)
system.mem_ctrls.dram.bwRead::cpu.inst       43248443                       # Total read bandwidth from this memory ((Byte/Second))
system.mem_ctrls.dram.bwRead::cpu.data      201991771                       # Total read bandwidth from this memory ((Byte/Second))
system.mem_ctrls.dram.bwRead::total         245240214                       # Total read bandwidth from this memory ((Byte/Second))
system.mem_ctrls.dram.bwInstRead::cpu.inst     43248443                       # Instruction read bandwidth from this memory ((Byte/Second))
system.mem_ctrls.dram.bwInstRead::total      43248443                       # Instruction read bandwidth from this memory ((Byte/Second))
system.mem_ctrls.dram.bwWrite::writebacks    146113089                       # Write bandwidth from this memory ((Byte/Second))
system.mem_ctrls.dram.bwWrite::total        146113089                       # Write bandwidth from this memory ((Byte/Second))
system.mem_ctrls.dram.bwTotal::writebacks    146113089                       # Total bandwidth to/from this memory ((Byte/Second))
system.mem_ctrls.dram.bwTotal::cpu.inst      43248443                       # Total bandwidth to/from this memory ((Byte/Second))
system.mem_ctrls.dram.bwTotal::cpu.data     201991771                       # Total bandwidth to/from this memory ((Byte/Second))
system.mem_ctrls.dram.bwTotal::total        391353303                       # Total bandwidth to/from this memory ((Byte/Second))
system.mem_ctrls.dram.readBursts                12954                       # Number of DRAM read bursts (Count)
system.mem_ctrls.dram.writeBursts                7907                       # Number of DRAM write bursts (Count)
system.mem_ctrls.dram.perBankRdBursts::0          516                       # Per bank write bursts (Count)
system.mem_ctrls.dram.perBankRdBursts::1          370                       # Per bank write bursts (Count)
system.mem_ctrls.dram.perBankRdBursts::2          349                       # Per bank write bursts (Count)
system.mem_ctrls.dram.perBankRdBursts::3          238                       # Per bank write bursts (Count)
system.mem_ctrls.dram.perBankRdBursts::4          316                       # Per bank write bursts (Count)
system.mem_ctrls.dram.perBankRdBursts::5          378                       # Per bank write bursts (Count)
system.mem_ctrls.dram.perBankRdBursts::6          589                       # Per bank write bursts (Count)
system.mem_ctrls.dram.perBankRdBursts::7          224                       # Per bank write bursts (Count)
system.mem_ctrls.dram.perBankRdBursts::8          986                       # Per bank write bursts (Count)
system.mem_ctrls.dram.perBankRdBursts::9         2071                       # Per bank write bursts (Count)
system.mem_ctrls.dram.perBankRdBursts::10         1802                       # Per bank write bursts (Count)
system.mem_ctrls.dram.perBankRdBursts::11         1637                       # Per bank write bursts (Count)
system.mem_ctrls.dram.perBankRdBursts::12         1446                       # Per bank write bursts (Count)
system.mem_ctrls.dram.perBankRdBursts::13         1099                       # Per bank write bursts (Count)
system.mem_ctrls.dram.perBankRdBursts::14          505                       # Per bank write bursts (Count)
system.mem_ctrls.dram.perBankRdBursts::15          428                       # Per bank write bursts (Count)
system.mem_ctrls.dram.perBankWrBursts::0           45                       # Per bank write bursts (Count)
system.mem_ctrls.dram.perBankWrBursts::1           43                       # Per bank write bursts (Count)
system.mem_ctrls.dram.perBankWrBursts::2           63                       # Per bank write bursts (Count)
system.mem_ctrls.dram.perBankWrBursts::3           58                       # Per bank write bursts (Count)
system.mem_ctrls.dram.perBankWrBursts::4            0                       # Per bank write bursts (Count)
system.mem_ctrls.dram.perBankWrBursts::5          131                       # Per bank write bursts (Count)
system.mem_ctrls.dram.perBankWrBursts::6          302                       # Per bank write bursts (Count)
system.mem_ctrls.dram.perBankWrBursts::7           14                       # Per bank write bursts (Count)
system.mem_ctrls.dram.perBankWrBursts::8          673                       # Per bank write bursts (Count)
system.mem_ctrls.dram.perBankWrBursts::9         1636                       # Per bank write bursts (Count)
system.mem_ctrls.dram.perBankWrBursts::10         1579                       # Per bank write bursts (Count)
system.mem_ctrls.dram.perBankWrBursts::11         1269                       # Per bank write bursts (Count)
system.mem_ctrls.dram.perBankWrBursts::12         1278                       # Per bank write bursts (Count)
system.mem_ctrls.dram.perBankWrBursts::13          660                       # Per bank write bursts (Count)
system.mem_ctrls.dram.perBankWrBursts::14          156                       # Per bank write bursts (Count)
system.mem_ctrls.dram.perBankWrBursts::15            0                       # Per bank write bursts (Count)
system.mem_ctrls.dram.totQLat               113277000                       # Total ticks spent queuing (Tick)
system.mem_ctrls.dram.totBusLat              64770000                       # Total ticks spent in databus transfers (Tick)
system.mem_ctrls.dram.totMemAccLat          356164500                       # Total ticks spent from burst creation until serviced by the DRAM (Tick)
system.mem_ctrls.dram.avgQLat                 8744.56                       # Average queueing delay per DRAM burst ((Tick/Count))
system.mem_ctrls.dram.avgBusLat               5000.00                       # Average bus latency per DRAM burst ((Tick/Count))
system.mem_ctrls.dram.avgMemAccLat           27494.56                       # Average memory access latency per DRAM burst ((Tick/Count))
system.mem_ctrls.dram.readRowHits               11058                       # Number of row buffer hits during reads (Count)
system.mem_ctrls.dram.writeRowHits               7104                       # Number of row buffer hits during writes (Count)
system.mem_ctrls.dram.readRowHitRate            85.36                       # Row buffer hit rate for reads (Ratio)
system.mem_ctrls.dram.writeRowHitRate           89.84                       # Row buffer hit rate for writes (Ratio)
system.mem_ctrls.dram.bytesPerActivate::samples         2689                       # Bytes accessed per row activation (Byte)
system.mem_ctrls.dram.bytesPerActivate::mean   495.006322                       # Bytes accessed per row activation (Byte)
system.mem_ctrls.dram.bytesPerActivate::gmean   314.415943                       # Bytes accessed per row activation (Byte)
system.mem_ctrls.dram.bytesPerActivate::stdev   392.478647                       # Bytes accessed per row activation (Byte)
system.mem_ctrls.dram.bytesPerActivate::0-127          535     19.90%     19.90% # Bytes accessed per row activation (Byte)
system.mem_ctrls.dram.bytesPerActivate::128-255          488     18.15%     38.04% # Bytes accessed per row activation (Byte)
system.mem_ctrls.dram.bytesPerActivate::256-383          377     14.02%     52.06% # Bytes accessed per row activation (Byte)
system.mem_ctrls.dram.bytesPerActivate::384-511          143      5.32%     57.38% # Bytes accessed per row activation (Byte)
system.mem_ctrls.dram.bytesPerActivate::512-639          113      4.20%     61.58% # Bytes accessed per row activation (Byte)
system.mem_ctrls.dram.bytesPerActivate::640-767          104      3.87%     65.45% # Bytes accessed per row activation (Byte)
system.mem_ctrls.dram.bytesPerActivate::768-895           86      3.20%     68.65% # Bytes accessed per row activation (Byte)
system.mem_ctrls.dram.bytesPerActivate::896-1023           79      2.94%     71.59% # Bytes accessed per row activation (Byte)
system.mem_ctrls.dram.bytesPerActivate::1024-1151          764     28.41%    100.00% # Bytes accessed per row activation (Byte)
system.mem_ctrls.dram.bytesPerActivate::total         2689                       # Bytes accessed per row activation (Byte)
system.mem_ctrls.dram.bytesRead                829056                       # Total bytes read (Byte)
system.mem_ctrls.dram.bytesWritten             506048                       # Total bytes written (Byte)
system.mem_ctrls.dram.avgRdBW              238.501632                       # Average DRAM read bandwidth in MiBytes/s ((Byte/Second))
system.mem_ctrls.dram.avgWrBW              145.579157                       # Average DRAM write bandwidth in MiBytes/s ((Byte/Second))
system.mem_ctrls.dram.peakBW                 12800.00                       # Theoretical peak bandwidth in MiByte/s ((Byte/Second))
system.mem_ctrls.dram.busUtil                    3.00                       # Data bus utilization in percentage (Ratio)
system.mem_ctrls.dram.busUtilRead                1.86                       # Data bus utilization in percentage for reads (Ratio)
system.mem_ctrls.dram.busUtilWrite               1.14                       # Data bus utilization in percentage for writes (Ratio)
system.mem_ctrls.dram.pageHitRate               87.06                       # Row buffer hit rate, read and write combined (Ratio)
system.mem_ctrls.dram.power_state.pwrStateResidencyTicks::UNDEFINED   3476102000                       # Cumulative time (in ticks) in various power states (Tick)
system.mem_ctrls.dram.rank0.actEnergy         5140800                       # Energy for activate commands per rank (pJ) (Joule)
system.mem_ctrls.dram.rank0.preEnergy         2717220                       # Energy for precharge commands per rank (pJ) (Joule)
system.mem_ctrls.dram.rank0.readEnergy       21277200                       # Energy for read commands per rank (pJ) (Joule)
system.mem_ctrls.dram.rank0.writeEnergy       3424320                       # Energy for write commands per rank (pJ) (Joule)
system.mem_ctrls.dram.rank0.refreshEnergy 274129440.000000                       # Energy for refresh commands per rank (pJ) (Joule)
system.mem_ctrls.dram.rank0.actBackEnergy    280754640                       # Energy for active background per rank (pJ) (Joule)
system.mem_ctrls.dram.rank0.preBackEnergy   1098398400                       # Energy for precharge background per rank (pJ) (Joule)
system.mem_ctrls.dram.rank0.actPowerDownEnergy            0                       # Energy for active power-down per rank (pJ) (Joule)
system.mem_ctrls.dram.rank0.prePowerDownEnergy            0                       # Energy for precharge power-down per rank (pJ) (Joule)
system.mem_ctrls.dram.rank0.selfRefreshEnergy            0                       # Energy for self refresh per rank (pJ) (Joule)
system.mem_ctrls.dram.rank0.totalEnergy    1685842020                       # Total energy per rank (pJ) (Joule)
system.mem_ctrls.dram.rank0.averagePower   484.980596                       # Core power per rank (mW) (Watt)
system.mem_ctrls.dram.rank0.totalIdleTime            0                       # Total Idle time Per DRAM Rank (Tick)
system.mem_ctrls.dram.rank0.pwrStateTime::IDLE   2852548250                       # Time in different power states (Tick)
system.mem_ctrls.dram.rank0.pwrStateTime::REF    115960000                       # Time in different power states (Tick)
system.mem_ctrls.dram.rank0.pwrStateTime::SREF            0                       # Time in different power states (Tick)
system.mem_ctrls.dram.rank0.pwrStateTime::PRE_PDN            0                       # Time in different power states (Tick)
system.mem_ctrls.dram.rank0.pwrStateTime::ACT    507593750                       # Time in different power states (Tick)
system.mem_ctrls.dram.rank0.pwrStateTime::ACT_PDN            0                       # Time in different power states (Tick)
system.mem_ctrls.dram.rank1.actEnergy        14130060                       # Energy for activate commands per rank (pJ) (Joule)
system.mem_ctrls.dram.rank1.preEnergy         7487535                       # Energy for precharge commands per rank (pJ) (Joule)
system.mem_ctrls.dram.rank1.readEnergy       71214360                       # Energy for read commands per rank (pJ) (Joule)
system.mem_ctrls.dram.rank1.writeEnergy      37850220                       # Energy for write commands per rank (pJ) (Joule)
system.mem_ctrls.dram.rank1.refreshEnergy 274129440.000000                       # Energy for refresh commands per rank (pJ) (Joule)
system.mem_ctrls.dram.rank1.actBackEnergy   1243428780                       # Energy for active background per rank (pJ) (Joule)
system.mem_ctrls.dram.rank1.preBackEnergy    287725440                       # Energy for precharge background per rank (pJ) (Joule)
system.mem_ctrls.dram.rank1.actPowerDownEnergy            0                       # Energy for active power-down per rank (pJ) (Joule)
system.mem_ctrls.dram.rank1.prePowerDownEnergy            0                       # Energy for precharge power-down per rank (pJ) (Joule)
system.mem_ctrls.dram.rank1.selfRefreshEnergy            0                       # Energy for self refresh per rank (pJ) (Joule)
system.mem_ctrls.dram.rank1.totalEnergy    1935965835                       # Total energy per rank (pJ) (Joule)
system.mem_ctrls.dram.rank1.averagePower   556.935854                       # Core power per rank (mW) (Watt)
system.mem_ctrls.dram.rank1.totalIdleTime            0                       # Total Idle time Per DRAM Rank (Tick)
system.mem_ctrls.dram.rank1.pwrStateTime::IDLE    736482750                       # Time in different power states (Tick)
system.mem_ctrls.dram.rank1.pwrStateTime::REF    115960000                       # Time in different power states (Tick)
system.mem_ctrls.dram.rank1.pwrStateTime::SREF            0                       # Time in different power states (Tick)
system.mem_ctrls.dram.rank1.pwrStateTime::PRE_PDN            0                       # Time in different power states (Tick)
system.mem_ctrls.dram.rank1.pwrStateTime::ACT   2623659250                       # Time in different power states (Tick)
system.mem_ctrls.dram.rank1.pwrStateTime::ACT_PDN            0                       # Time in different power states (Tick)
system.mem_ctrls.power_state.pwrStateResidencyTicks::UNDEFINED   3476102000                       # Cumulative time (in ticks) in various power states (Tick)
system.membus.transDist::ReadResp                8387                       # Transaction distribution (Count)
system.membus.transDist::WritebackDirty          7936                       # Transaction distribution (Count)
system.membus.transDist::CleanEvict              4872                       # Transaction distribution (Count)
system.membus.transDist::ReadExReq               4933                       # Transaction distribution (Count)
system.membus.transDist::ReadExResp              4933                       # Transaction distribution (Count)
system.membus.transDist::ReadSharedReq           8388                       # Transaction distribution (Count)
system.membus.pktCount_system.l2cache.mem_side_port::system.mem_ctrls.port        39449                       # Packet count per connected requestor and responder (Count)
system.membus.pktCount_system.l2cache.mem_side_port::total        39449                       # Packet count per connected requestor and responder (Count)
system.membus.pktCount::total                   39449                       # Packet count per connected requestor and responder (Count)
system.membus.pktSize_system.l2cache.mem_side_port::system.mem_ctrls.port      1360384                       # Cumulative packet size per connected requestor and responder (Byte)
system.membus.pktSize_system.l2cache.mem_side_port::total      1360384                       # Cumulative packet size per connected requestor and responder (Byte)
system.membus.pktSize::total                  1360384                       # Cumulative packet size per connected requestor and responder (Byte)
system.membus.snoops                                0                       # Total snoops (Count)
system.membus.snoopTraffic                          0                       # Total snoop traffic (Byte)
system.membus.snoopFanout::samples              13321                       # Request fanout histogram (Count)
system.membus.snoopFanout::mean                     0                       # Request fanout histogram (Count)
system.membus.snoopFanout::stdev                    0                       # Request fanout histogram (Count)
system.membus.snoopFanout::underflows               0      0.00%      0.00% # Request fanout histogram (Count)
system.membus.snoopFanout::0                    13321    100.00%    100.00% # Request fanout histogram (Count)
system.membus.snoopFanout::1                        0      0.00%    100.00% # Request fanout histogram (Count)
system.membus.snoopFanout::overflows                0      0.00%    100.00% # Request fanout histogram (Count)
system.membus.snoopFanout::min_value                0                       # Request fanout histogram (Count)
system.membus.snoopFanout::max_value                0                       # Request fanout histogram (Count)
system.membus.snoopFanout::total                13321                       # Request fanout histogram (Count)
system.membus.power_state.pwrStateResidencyTicks::UNDEFINED   3476102000                       # Cumulative time (in ticks) in various power states (Tick)
system.membus.reqLayer2.occupancy            28936500                       # Layer occupancy (ticks) (Tick)
system.membus.reqLayer2.utilization               0.0                       # Layer utilization (Ratio)
system.membus.respLayer1.occupancy           36181250                       # Layer occupancy (ticks) (Tick)
system.membus.respLayer1.utilization              0.0                       # Layer utilization (Ratio)
system.membus.snoop_filter.totRequests          26129                       # Total number of requests made to the snoop filter. (Count)
system.membus.snoop_filter.hitSingleRequests        12809                       # Number of requests hitting in the snoop filter with a single holder of the requested data. (Count)
system.membus.snoop_filter.hitMultiRequests            0                       # Number of requests hitting in the snoop filter with multiple (>1) holders of the requested data. (Count)
system.membus.snoop_filter.totSnoops                0                       # Total number of snoops made to the snoop filter. (Count)
system.membus.snoop_filter.hitSingleSnoops            0                       # Number of snoops hitting in the snoop filter with a single holder of the requested data. (Count)
system.membus.snoop_filter.hitMultiSnoops            0                       # Number of snoops hitting in the snoop filter with multiple (>1) holders of the requested data. (Count)
system.workload.inst.arm                            0                       # number of arm instructions executed (Count)
system.workload.inst.quiesce                        0                       # number of quiesce instructions executed (Count)

---------- End Simulation Statistics   ----------
